sim-outorder: SimpleScalar/Alpha Tool Set version 4.0 of December, 2001.
Copyright (C) 2000-2001 by The Regents of The University of Michigan.
Copyright (C) 1994-2001 by Todd M. Austin, Ph.D. and SimpleScalar, LLC.
This version of SimpleScalar is licensed for academic non-commercial use only.

sim: command line: ./sim-outorder -redir:sim output_2 -v ../test 

sim: simulation started @ Sat Jun  5 16:07:53 2010, options follow:

sim-outorder: This simulator implements a very detailed out-of-order issue
superscalar processor with a two-level memory system and speculative
execution support.  This simulator is a performance simulator, tracking the
latency of all pipeline operations.

# -config                     # load configuration from a file
# -dumpconfig                 # dump configuration to a file
# -h                    false # print help message    
# -v                     true # verbose operation     
# -vr                   false # verbose registers operation
-trigger:inst               0 # trigger instruction for verbose operation
# -d                    false # enable debug message  
# -i                    false # start in Dlite debugger
-seed                       1 # random number generator seed (0 for timer seed)
# -q                    false # initialize and terminate immediately
# -chkpt               <null> # restore EIO trace execution from <fname>
# -redir:sim         output_2 # redirect simulator output to file (non-interactive only)
# -redir:prog          <null> # redirect simulated program output to file
-nice                       0 # simulator scheduling priority
-max:inst                   0 # maximum number of inst's to execute
-fastfwd                    0 # number of insts skipped before timing starts
# -ptrace              <null> # generate pipetrace, i.e., <fname|stdout|stderr> <range>
-fetch:ifqsize              4 # instruction fetch queue size (in insts)
-fetch:mplat                3 # extra branch mis-prediction latency
-fetch:speed                1 # speed of front-end of machine relative to execution core
-fetch:mf_compat        false # optimistic misfetch recovery
-bpred                  bimod # branch predictor type {nottaken|taken|perfect|bimod|2lev|comb}
-bpred:bimod     2048 # bimodal predictor config (<table size>)
-bpred:2lev      1 1024 8 0 # 2-level predictor config (<l1size> <l2size> <hist_size> <xor>)
-bpred:comb      1024 # combining predictor config (<meta_table_size>)
-bpred:ras                  8 # return address stack size (0 for no return stack)
-bpred:btb       512 4 # BTB config (<num_sets> <associativity>)
# -bpred:spec_update       <null> # speculative predictors update in {ID|WB} (default non-spec)
-decode:width               4 # instruction decode B/W (insts/cycle)
-issue:width                4 # instruction issue B/W (insts/cycle)
-issue:inorder          false # run pipeline with in-order issue
-issue:wrongpath         true # issue instructions down wrong execution paths
-commit:width               4 # instruction commit B/W (insts/cycle)
-ruu:size                  16 # register update unit (RUU) size
-lsq:size                   8 # load/store queue (LSQ) size
-lsq:perfect            false # perfect memory disambiguation
-cache:dl1       dl1:128:32:4:l # l1 data cache config, i.e., {<config>|none}
-cache:dl1lat               1 # l1 data cache hit latency (in cycles)
-cache:dl2       ul2:1024:64:4:l # l2 data cache config, i.e., {<config>|none}
-cache:dl2lat               6 # l2 data cache hit latency (in cycles)
-cache:il1       il1:512:32:1:l # l1 inst cache config, i.e., {<config>|dl1|dl2|none}
-cache:il1lat               1 # l1 instruction cache hit latency (in cycles)
-cache:il2                dl2 # l2 instruction cache config, i.e., {<config>|dl2|none}
-cache:il2lat               6 # l2 instruction cache hit latency (in cycles)
-cache:flush            false # flush caches on system calls
-cache:icompress        false # convert 64-bit inst addresses to 32-bit inst equivalents
-mem:lat         18 2 # memory access latency (<first_chunk> <inter_chunk>)
-mem:width                  8 # memory access bus width (in bytes)
-tlb:itlb        itlb:16:4096:4:l # instruction TLB config, i.e., {<config>|none}
-tlb:dtlb        dtlb:32:4096:4:l # data TLB config, i.e., {<config>|none}
-tlb:lat                   30 # inst/data TLB miss latency (in cycles)
-res:ialu                   4 # total number of integer ALU's available
-res:imult                  1 # total number of integer multiplier/dividers available
-res:memport                2 # total number of memory system ports available (to CPU)
-res:fpalu                  4 # total number of floating point ALU's available
-res:fpmult                 1 # total number of floating point multiplier/dividers available
# -pcstat              <null> # profile stat(s) against text addr's (mult uses ok)
-bugcompat              false # operate in backward-compatible bugs mode (for testing only)

  Pipetrace range arguments are formatted as follows:

    {{@|#}<start>}:{{@|#|+}<end>}

  Both ends of the range are optional, if neither are specified, the entire
  execution is traced.  Ranges that start with a `@' designate an address
  range to be traced, those that start with an `#' designate a cycle count
  range.  All other range values represent an instruction count range.  The
  second argument, if specified with a `+', indicates a value relative
  to the first argument, e.g., 1000:+100 == 1000:1100.  Program symbols may
  be used in all contexts.

    Examples:   -ptrace FOO.trc #0:#1000
                -ptrace BAR.trc @2000:
                -ptrace BLAH.trc :1500
                -ptrace UXXE.trc :
                -ptrace FOOBAR.trc @main:+278

  Branch predictor configuration examples for 2-level predictor:
    Configurations:   N, M, W, X
      N   # entries in first level (# of shift register(s))
      W   width of shift register(s)
      M   # entries in 2nd level (# of counters, or other FSM)
      X   (yes-1/no-0) xor history and address for 2nd level index
    Sample predictors:
      GAg     : 1, W, 2^W, 0
      GAp     : 1, W, M (M > 2^W), 0
      PAg     : N, W, 2^W, 0
      PAp     : N, W, M (M == 2^(N+W)), 0
      gshare  : 1, W, 2^W, 1
  Predictor `comb' combines a bimodal and a 2-level predictor.

  The cache config parameter <config> has the following format:

    <name>:<nsets>:<bsize>:<assoc>:<repl>

    <name>   - name of the cache being defined
    <nsets>  - number of sets in the cache
    <bsize>  - block size of the cache
    <assoc>  - associativity of the cache
    <repl>   - block replacement strategy, 'l'-LRU, 'f'-FIFO, 'r'-random

    Examples:   -cache:dl1 dl1:4096:32:1:l
                -dtlb dtlb:128:4096:32:r

  Cache levels can be unified by pointing a level of the instruction cache
  hierarchy at the data cache hiearchy using the "dl1" and "dl2" cache
  configuration arguments.  Most sensible combinations are supported, e.g.,

    A unified l2 cache (il2 is pointed at dl2):
      -cache:il1 il1:128:64:1:l -cache:il2 dl2
      -cache:dl1 dl1:256:32:1:l -cache:dl2 ul2:1024:64:2:l

    Or, a fully unified cache hierarchy (il1 pointed at dl1):
      -cache:il1 dl1
      -cache:dl1 ul1:256:32:1:l -cache:dl2 ul2:1024:64:2:l



sim: ** starting performance simulation **
++          1 [xor: 0x20001e0f] {1} @ 0x1200001e0: br r29,0x1200001e4
         1 @ 0x1200001e0: br r29,0x1200001e4
++          2 [xor: 0x200b1e07] {2} @ 0x1200001e4: ldah r29,11(r29)
++          3 [xor: 0x200afc4b] {3} @ 0x1200001e8: lda r29,-7748(r29)
++          4 [xor: 0x200ac3a3] {4} @ 0x1200001ec: subq r30,16,r30
++          5 [xor: 0x200ac3bb] {5} @ 0x1200001f0: bis r31,0,r15
++          6 [xor: 0x000ac0f3] {6} @ 0x1200001f4: ldq r16,-32128(r29)
++          7 [xor: 0x000adf0d] {8} @ 0x1200001f8: ldl r17,16(r30)
++          8 [xor: 0x000adce5] {10} @ 0x1200001fc: lda r18,24(r30)
         2 @ 0x1200001e4: ldah r29,11(r29)
         3 @ 0x1200001e8: lda r29,-7748(r29)
         4 @ 0x1200001ec: subq r30,16,r30
         5 @ 0x1200001f0: bis r31,0,r15
         6 @ 0x1200001f4: ldq r16,-32128(r29)
         7 @ 0x1200001f8: ldl r17,16(r30)
         8 @ 0x1200001fc: lda r18,24(r30)
++          9 [xor: 0x200ad3cc] {11} @ 0x120000200: ldq r19,-32144(r29)
++         10 [xor: 0x000adf85] {13} @ 0x120000204: ldq r20,-32464(r29)
++         11 [xor: 0x000adf8d] {15} @ 0x120000208: bis r31,r0,r21
++         12 [xor: 0x000adf95] {16} @ 0x12000020c: stq r30,0(r30)
++         13 [xor: 0x000adf8d] {18} @ 0x120000210: ldq_u r31,0(r30)
++         14 [xor: 0x200adc1c] {20} @ 0x120000214: bsr r26,0x120000398
         9 @ 0x120000200: ldq r19,-32144(r29)
        10 @ 0x120000204: ldq r20,-32464(r29)
        11 @ 0x120000208: bis r31,r0,r21
        12 @ 0x12000020c: stq r30,0(r30)
        13 @ 0x120000210: ldq_u r31,0(r30)
        14 @ 0x120000214: bsr r26,0x120000398
++         15 [xor: 0x200adf74] {21} @ 0x120000398: lda r30,-736(r30)
++         16 [xor: 0x200adf4c] {22} @ 0x12000039c: bis r31,r31,r2
        15 @ 0x120000398: lda r30,-736(r30)
        16 @ 0x12000039c: bis r31,r31,r2
++         17 [xor: 0x200adf74] {23} @ 0x1200003a0: lda r1,0(r31)
++         18 [xor: 0x200adf7c] {24} @ 0x1200003a4: stq r12,32(r30)
++         19 [xor: 0x200adf74] {26} @ 0x1200003a8: bis r31,r21,r12
++         20 [xor: 0x200adf6c] {27} @ 0x1200003ac: stq r13,40(r30)
++         21 [xor: 0x000ad335] {29} @ 0x1200003b0: bis r31,r20,r13
++         22 [xor: 0x000ad33d] {30} @ 0x1200003b4: stq r14,48(r30)
++         23 [xor: 0x200adfe4] {32} @ 0x1200003b8: bis r31,r19,r14
++         24 [xor: 0x200adf9c] {33} @ 0x1200003bc: stq r26,0(r30)
        17 @ 0x1200003a0: lda r1,0(r31)
        18 @ 0x1200003a4: stq r12,32(r30)
        19 @ 0x1200003a8: bis r31,r21,r12
        20 @ 0x1200003ac: stq r13,40(r30)
        21 @ 0x1200003b0: bis r31,r20,r13
        22 @ 0x1200003b4: stq r14,48(r30)
        23 @ 0x1200003b8: bis r31,r19,r14
        24 @ 0x1200003bc: stq r26,0(r30)
++         25 [xor: 0x200adfe4] {35} @ 0x1200003c0: stq r9,8(r30)
++         26 [xor: 0x200adfec] {37} @ 0x1200003c4: stq r10,16(r30)
++         27 [xor: 0x200adfe4] {39} @ 0x1200003c8: stq r11,24(r30)
++         28 [xor: 0x200adffc] {41} @ 0x1200003cc: stq r16,704(r30)
++         29 [xor: 0x200adfe4] {43} @ 0x1200003d0: stq r17,712(r30)
++         30 [xor: 0x200adfec] {45} @ 0x1200003d4: stq r18,720(r30)
++         31 [xor: 0x200adfe4] {47} @ 0x1200003d8: bne r1,0x120000740
++         32 [xor: 0x200ac02b] {48} @ 0x1200003dc: ldq r1,720(r30)
        25 @ 0x1200003c0: stq r9,8(r30)
        26 @ 0x1200003c4: stq r10,16(r30)
        27 @ 0x1200003c8: stq r11,24(r30)
        28 @ 0x1200003cc: stq r16,704(r30)
        29 @ 0x1200003d0: stq r17,712(r30)
        30 @ 0x1200003d4: stq r18,720(r30)
        31 @ 0x1200003d8: bne r1,0x120000740
        32 @ 0x1200003dc: ldq r1,720(r30)
++         33 [xor: 0x200ac012] {50} @ 0x1200003e0: ldq r27,712(r30)
++         34 [xor: 0x200ae015] {52} @ 0x1200003e4: ldq r4,736(r30)
++         35 [xor: 0x200afff2] {54} @ 0x1200003e8: lda r3,8(r1)
++         36 [xor: 0x0000890c] {55} @ 0x1200003ec: lda r1,-31376(r29)
++         37 [xor: 0x0000891c] {56} @ 0x1200003f0: s8addq r27,r3,r3
++         38 [xor: 0x200095b2] {57} @ 0x1200003f4: bis r31,r3,r16
++         39 [xor: 0x200095ba] {58} @ 0x1200003f8: stl r2,0(r1)
++         40 [xor: 0x000af86b] {60} @ 0x1200003fc: lda r2,-31096(r29)
        33 @ 0x1200003e0: ldq r27,712(r30)
        34 @ 0x1200003e4: ldq r4,736(r30)
        35 @ 0x1200003e8: lda r3,8(r1)
        36 @ 0x1200003ec: lda r1,-31376(r29)
        37 @ 0x1200003f0: s8addq r27,r3,r3
        38 @ 0x1200003f4: bis r31,r3,r16
        39 @ 0x1200003f8: stl r2,0(r1)
        40 @ 0x1200003fc: lda r2,-31096(r29)
++         41 [xor: 0x000ad6db] {61} @ 0x120000400: ldq r1,-32696(r29)
++         42 [xor: 0x000ad6d3] {63} @ 0x120000404: stq r3,0(r2)
++         43 [xor: 0x000ad6db] {65} @ 0x120000408: stq r4,0(r1)
++         44 [xor: 0x000ad6c3] {67} @ 0x12000040c: ldq_u r31,0(r30)
++         45 [xor: 0x2000899d] {69} @ 0x120000410: ldq r1,0(r16)
++         46 [xor: 0x200089ad] {71} @ 0x120000414: lda r16,8(r16)
++         47 [xor: 0x200089a9] {72} @ 0x120000418: bne r1,0x120000410
        41 @ 0x120000400: ldq r1,-32696(r29)
        42 @ 0x120000404: stq r3,0(r2)
        43 @ 0x120000408: stq r4,0(r1)
        44 @ 0x12000040c: ldq_u r31,0(r30)
        45 @ 0x120000410: ldq r1,0(r16)
        46 @ 0x120000414: lda r16,8(r16)
        47 @ 0x120000418: bne r1,0x120000410
++         48 [xor: 0x200089b7] {75} @ 0x120000410: ldq r1,0(r16)
++         49 [xor: 0x200089b7] {77} @ 0x120000414: lda r16,8(r16)
++         50 [xor: 0x200089b3] {78} @ 0x120000418: bne r1,0x120000410
++         51 [xor: 0x200089b0] {79} @ 0x120000410: ldq r1,0(r16)
++         52 [xor: 0x200089a0] {81} @ 0x120000414: lda r16,8(r16)
++         53 [xor: 0x200089a4] {82} @ 0x120000418: bne r1,0x120000410
++         54 [xor: 0x20008858] {83} @ 0x120000410: ldq r1,0(r16)
++         55 [xor: 0x20008858] {85} @ 0x120000414: lda r16,8(r16)
++         56 [xor: 0x2000885c] {86} @ 0x120000418: bne r1,0x120000410
++         57 [xor: 0x20008846] {87} @ 0x120000410: ldq r1,0(r16)
++         58 [xor: 0x20008836] {89} @ 0x120000414: lda r16,8(r16)
++         59 [xor: 0x20008832] {90} @ 0x120000418: bne r1,0x120000410
        48 @ 0x120000410: ldq r1,0(r16)
        49 @ 0x120000414: lda r16,8(r16)
++         60 [xor: 0x2000881f] {91} @ 0x120000410: ldq r1,0(r16)
++         61 [xor: 0x2000881f] {93} @ 0x120000414: lda r16,8(r16)
++         62 [xor: 0x2000881b] {94} @ 0x120000418: bne r1,0x120000410
        50 @ 0x120000418: bne r1,0x120000410
        51 @ 0x120000410: ldq r1,0(r16)
        52 @ 0x120000414: lda r16,8(r16)
++         63 [xor: 0x20008860] {95} @ 0x120000410: ldq r1,0(r16)
++         64 [xor: 0x20008870] {97} @ 0x120000414: lda r16,8(r16)
++         65 [xor: 0x20008874] {98} @ 0x120000418: bne r1,0x120000410
        53 @ 0x120000418: bne r1,0x120000410
        54 @ 0x120000410: ldq r1,0(r16)
        55 @ 0x120000414: lda r16,8(r16)
++         66 [xor: 0x2000886f] {99} @ 0x120000410: ldq r1,0(r16)
++         67 [xor: 0x2000886f] {101} @ 0x120000414: lda r16,8(r16)
++         68 [xor: 0x2000886b] {102} @ 0x120000418: bne r1,0x120000410
        56 @ 0x120000418: bne r1,0x120000410
        57 @ 0x120000410: ldq r1,0(r16)
        58 @ 0x120000414: lda r16,8(r16)
++         69 [xor: 0x20008a20] {103} @ 0x120000410: ldq r1,0(r16)
++         70 [xor: 0x20008a10] {105} @ 0x120000414: lda r16,8(r16)
++         71 [xor: 0x20008a14] {106} @ 0x120000418: bne r1,0x120000410
        59 @ 0x120000418: bne r1,0x120000410
        60 @ 0x120000410: ldq r1,0(r16)
        61 @ 0x120000414: lda r16,8(r16)
++         72 [xor: 0x20008a3f] {107} @ 0x120000410: ldq r1,0(r16)
++         73 [xor: 0x20008a3f] {109} @ 0x120000414: lda r16,8(r16)
++         74 [xor: 0x20008a3b] {110} @ 0x120000418: bne r1,0x120000410
        62 @ 0x120000418: bne r1,0x120000410
        63 @ 0x120000410: ldq r1,0(r16)
        64 @ 0x120000414: lda r16,8(r16)
++         75 [xor: 0x20008a8d] {111} @ 0x120000410: ldq r1,0(r16)
++         76 [xor: 0x20008a9d] {113} @ 0x120000414: lda r16,8(r16)
++         77 [xor: 0x20008a99] {114} @ 0x120000418: bne r1,0x120000410
        65 @ 0x120000418: bne r1,0x120000410
        66 @ 0x120000410: ldq r1,0(r16)
        67 @ 0x120000414: lda r16,8(r16)
++         78 [xor: 0x20008a80] {115} @ 0x120000410: ldq r1,0(r16)
++         79 [xor: 0x20008a80] {117} @ 0x120000414: lda r16,8(r16)
++         80 [xor: 0x20008a84] {118} @ 0x120000418: bne r1,0x120000410
        68 @ 0x120000418: bne r1,0x120000410
        69 @ 0x120000410: ldq r1,0(r16)
        70 @ 0x120000414: lda r16,8(r16)
++         81 [xor: 0x20008aaa] {119} @ 0x120000410: ldq r1,0(r16)
++         82 [xor: 0x20008a5a] {121} @ 0x120000414: lda r16,8(r16)
++         83 [xor: 0x20008a5e] {122} @ 0x120000418: bne r1,0x120000410
        71 @ 0x120000418: bne r1,0x120000410
        72 @ 0x120000410: ldq r1,0(r16)
        73 @ 0x120000414: lda r16,8(r16)
++         84 [xor: 0x20008a2d] {123} @ 0x120000410: ldq r1,0(r16)
++         85 [xor: 0x20008a2d] {125} @ 0x120000414: lda r16,8(r16)
++         86 [xor: 0x20008a29] {126} @ 0x120000418: bne r1,0x120000410
        74 @ 0x120000418: bne r1,0x120000410
        75 @ 0x120000410: ldq r1,0(r16)
        76 @ 0x120000414: lda r16,8(r16)
++         87 [xor: 0x20008a16] {127} @ 0x120000410: ldq r1,0(r16)
++         88 [xor: 0x20008a06] {129} @ 0x120000414: lda r16,8(r16)
++         89 [xor: 0x20008a02] {130} @ 0x120000418: bne r1,0x120000410
        77 @ 0x120000418: bne r1,0x120000410
        78 @ 0x120000410: ldq r1,0(r16)
        79 @ 0x120000414: lda r16,8(r16)
++         90 [xor: 0x20008df6] {131} @ 0x120000410: ldq r1,0(r16)
++         91 [xor: 0x20008df6] {133} @ 0x120000414: lda r16,8(r16)
++         92 [xor: 0x20008df2] {134} @ 0x120000418: bne r1,0x120000410
        80 @ 0x120000418: bne r1,0x120000410
        81 @ 0x120000410: ldq r1,0(r16)
        82 @ 0x120000414: lda r16,8(r16)
++         93 [xor: 0x20008deb] {135} @ 0x120000410: ldq r1,0(r16)
++         94 [xor: 0x20008ddb] {137} @ 0x120000414: lda r16,8(r16)
++         95 [xor: 0x20008ddf] {138} @ 0x120000418: bne r1,0x120000410
        83 @ 0x120000418: bne r1,0x120000410
        84 @ 0x120000410: ldq r1,0(r16)
        85 @ 0x120000414: lda r16,8(r16)
++         96 [xor: 0x20008de3] {139} @ 0x120000410: ldq r1,0(r16)
++         97 [xor: 0x20008de3] {141} @ 0x120000414: lda r16,8(r16)
++         98 [xor: 0x20008de7] {142} @ 0x120000418: bne r1,0x120000410
        86 @ 0x120000418: bne r1,0x120000410
        87 @ 0x120000410: ldq r1,0(r16)
        88 @ 0x120000414: lda r16,8(r16)
++         99 [xor: 0x20008dff] {143} @ 0x120000410: ldq r1,0(r16)
++        100 [xor: 0x20008def] {145} @ 0x120000414: lda r16,8(r16)
++        101 [xor: 0x20008deb] {146} @ 0x120000418: bne r1,0x120000410
        89 @ 0x120000418: bne r1,0x120000410
        90 @ 0x120000410: ldq r1,0(r16)
        91 @ 0x120000414: lda r16,8(r16)
++        102 [xor: 0x20008db6] {147} @ 0x120000410: ldq r1,0(r16)
++        103 [xor: 0x20008db6] {149} @ 0x120000414: lda r16,8(r16)
++        104 [xor: 0x20008db2] {150} @ 0x120000418: bne r1,0x120000410
        92 @ 0x120000418: bne r1,0x120000410
        93 @ 0x120000410: ldq r1,0(r16)
        94 @ 0x120000414: lda r16,8(r16)
++        105 [xor: 0x20008d58] {151} @ 0x120000410: ldq r1,0(r16)
++        106 [xor: 0x20008d28] {153} @ 0x120000414: lda r16,8(r16)
++        107 [xor: 0x20008d2c] {154} @ 0x120000418: bne r1,0x120000410
        95 @ 0x120000418: bne r1,0x120000410
        96 @ 0x120000410: ldq r1,0(r16)
        97 @ 0x120000414: lda r16,8(r16)
++        108 [xor: 0x20008d3f] {155} @ 0x120000410: ldq r1,0(r16)
++        109 [xor: 0x20008d3f] {157} @ 0x120000414: lda r16,8(r16)
++        110 [xor: 0x20008d3b] {158} @ 0x120000418: bne r1,0x120000410
        98 @ 0x120000418: bne r1,0x120000410
        99 @ 0x120000410: ldq r1,0(r16)
       100 @ 0x120000414: lda r16,8(r16)
++        111 [xor: 0x20008d06] {159} @ 0x120000410: ldq r1,0(r16)
++        112 [xor: 0x20008d16] {161} @ 0x120000414: lda r16,8(r16)
++        113 [xor: 0x20008d12] {162} @ 0x120000418: bne r1,0x120000410
       101 @ 0x120000418: bne r1,0x120000410
       102 @ 0x120000410: ldq r1,0(r16)
       103 @ 0x120000414: lda r16,8(r16)
++        114 [xor: 0x2000964a] {163} @ 0x120000410: ldq r1,0(r16)
++        115 [xor: 0x2000964a] {165} @ 0x120000414: lda r16,8(r16)
++        116 [xor: 0x20009642] {166} @ 0x120000418: bne r1,0x120000410
       104 @ 0x120000418: bne r1,0x120000410
       105 @ 0x120000410: ldq r1,0(r16)
       106 @ 0x120000414: lda r16,8(r16)
       107 @ 0x120000418: bne r1,0x120000410
       108 @ 0x120000410: ldq r1,0(r16)
       109 @ 0x120000414: lda r16,8(r16)
       110 @ 0x120000418: bne r1,0x120000410
       111 @ 0x120000410: ldq r1,0(r16)
       112 @ 0x120000414: lda r16,8(r16)
       113 @ 0x120000418: bne r1,0x120000410
       114 @ 0x120000410: ldq r1,0(r16)
       115 @ 0x120000414: lda r16,8(r16)
       116 @ 0x120000418: bne r1,0x120000410
++        117 [xor: 0x2000967a] {179} @ 0x12000041c: ldq_u r31,0(r30)
++        118 [xor: 0x20004b22] {181} @ 0x120000420: bsr r26,0x12000df78
       117 @ 0x12000041c: ldq_u r31,0(r30)
       118 @ 0x120000420: bsr r26,0x12000df78
++        119 [xor: 0x2000918e] {182} @ 0x12000df78: lda r30,-48(r30)
++        120 [xor: 0x7451a614] {183} @ 0x12000df7c: ldq r2,0(r16)
       119 @ 0x12000df78: lda r30,-48(r30)
       120 @ 0x12000df7c: ldq r2,0(r16)
++        121 [xor: 0x7451a6ec] {185} @ 0x12000df80: stq r26,0(r30)
++        122 [xor: 0x7451a6e4] {187} @ 0x12000df84: stq r9,8(r30)
++        123 [xor: 0x7451a6ec] {189} @ 0x12000df88: stq r10,16(r30)
++        124 [xor: 0x7451a6f4] {191} @ 0x12000df8c: stq r11,24(r30)
++        125 [xor: 0x7451a6ec] {193} @ 0x12000df90: stq r12,32(r30)
++        126 [xor: 0x7451a6e4] {195} @ 0x12000df94: stq r13,40(r30)
++        127 [xor: 0x7451a6ec] {197} @ 0x12000df98: beq r2,0x12000e07c
++        128 [xor: 0x545bcb25] {198} @ 0x12000df9c: ldq r11,-32336(r29)
       121 @ 0x12000df80: stq r26,0(r30)
       122 @ 0x12000df84: stq r9,8(r30)
       123 @ 0x12000df88: stq r10,16(r30)
       124 @ 0x12000df8c: stq r11,24(r30)
       125 @ 0x12000df90: stq r12,32(r30)
       126 @ 0x12000df94: stq r13,40(r30)
       127 @ 0x12000df98: beq r2,0x12000e07c
       128 @ 0x12000df9c: ldq r11,-32336(r29)
++        129 [xor: 0x74518b7d] {200} @ 0x12000dfa0: ldq r17,-32384(r29)
++        130 [xor: 0x545be6d4] {202} @ 0x12000dfa4: ldq r10,-31992(r29)
++        131 [xor: 0x74519492] {204} @ 0x12000dfa8: ldq r18,-31800(r29)
++        132 [xor: 0x745bf5da] {206} @ 0x12000dfac: ldq r19,-32192(r29)
++        133 [xor: 0x7451941a] {208} @ 0x12000dfb0: ldq r20,-32088(r29)
++        134 [xor: 0x545b77b2] {210} @ 0x12000dfb4: ldah r27,0(r29)
++        135 [xor: 0x74511a53] {211} @ 0x12000dfb8: ldq r9,-31616(r29)
++        136 [xor: 0x5458f98a] {213} @ 0x12000dfbc: ldah r12,-1(r29)
       129 @ 0x12000dfa0: ldq r17,-32384(r29)
       130 @ 0x12000dfa4: ldq r10,-31992(r29)
       131 @ 0x12000dfa8: ldq r18,-31800(r29)
       132 @ 0x12000dfac: ldq r19,-32192(r29)
       133 @ 0x12000dfb0: ldq r20,-32088(r29)
       134 @ 0x12000dfb4: ldah r27,0(r29)
       135 @ 0x12000dfb8: ldq r9,-31616(r29)
       136 @ 0x12000dfbc: ldah r12,-1(r29)
++        137 [xor: 0x5458f9f2] {214} @ 0x12000dfc0: ldl r28,0(r11)
++        138 [xor: 0x745f1a5b] {216} @ 0x12000dfc4: ldah r1,-3(r29)
++        139 [xor: 0x745f1a52] {217} @ 0x12000dfc8: ldl r21,0(r17)
++        140 [xor: 0x54587737] {219} @ 0x12000dfcc: lda r7,-30244(r1)
++        141 [xor: 0x5458772f] {220} @ 0x12000dfd0: ldq r0,0(r10)
++        142 [xor: 0x54585728] {222} @ 0x12000dfd4: bis r31,r31,r4
++        143 [xor: 0x54585720] {223} @ 0x12000dfd8: ldq r25,-31048(r27)
++        144 [xor: 0x54585718] {225} @ 0x12000dfdc: bis r31,r31,r5
       137 @ 0x12000dfc0: ldl r28,0(r11)
       138 @ 0x12000dfc4: ldah r1,-3(r29)
       139 @ 0x12000dfc8: ldl r21,0(r17)
       140 @ 0x12000dfcc: lda r7,-30244(r1)
       141 @ 0x12000dfd0: ldq r0,0(r10)
       142 @ 0x12000dfd4: bis r31,r31,r4
       143 @ 0x12000dfd8: ldq r25,-31048(r27)
       144 @ 0x12000dfdc: bis r31,r31,r5
++        145 [xor: 0x54585720] {226} @ 0x12000dfe0: ldq r24,0(r18)
++        146 [xor: 0x545848cf] {228} @ 0x12000dfe4: bis r31,r31,r3
++        147 [xor: 0x545848c7] {229} @ 0x12000dfe8: ldq r23,0(r19)
++        148 [xor: 0x745217e6] {231} @ 0x12000dfec: lda r6,31640(r12)
++        149 [xor: 0x745217fe] {232} @ 0x12000dff0: ldl r22,0(r20)
++        150 [xor: 0x54521bb7] {234} @ 0x12000dff4: lda r13,-1(r31)
++        151 [xor: 0x54521bbf] {235} @ 0x12000dff8: ldq r8,0(r9)
++        152 [xor: 0x54522447] {237} @ 0x12000dffc: ldq_u r31,0(r30)
       145 @ 0x12000dfe0: ldq r24,0(r18)
       146 @ 0x12000dfe4: bis r31,r31,r3
       147 @ 0x12000dfe8: ldq r23,0(r19)
       148 @ 0x12000dfec: lda r6,31640(r12)
       149 @ 0x12000dff0: ldl r22,0(r20)
       150 @ 0x12000dff4: lda r13,-1(r31)
       151 @ 0x12000dff8: ldq r8,0(r9)
       152 @ 0x12000dffc: ldq_u r31,0(r30)
++        153 [xor: 0x54521bba] {239} @ 0x12000e000: lda r2,-3(r2)
++        154 [xor: 0x7455f813] {240} @ 0x12000e004: cmpule r2,34,r1
++        155 [xor: 0x7455f837] {241} @ 0x12000e008: beq r1,0x12000e020
       153 @ 0x12000e000: lda r2,-3(r2)
       154 @ 0x12000e004: cmpule r2,34,r1
       155 @ 0x12000e008: beq r1,0x12000e020
++        156 [xor: 0x7455f82b] {255} @ 0x12000e020: lda r16,16(r16)
++        157 [xor: 0x1b03aa35] {256} @ 0x12000e024: ldq r2,0(r16)
++        158 [xor: 0x1b03aa11] {258} @ 0x12000e028: bne r2,0x12000e000
       156 @ 0x12000e020: lda r16,16(r16)
       157 @ 0x12000e024: ldq r2,0(r16)
       158 @ 0x12000e028: bne r2,0x12000e000
++        159 [xor: 0x1b03aa3a] {268} @ 0x12000e000: lda r2,-3(r2)
++        160 [xor: 0x1b03aa32] {269} @ 0x12000e004: cmpule r2,34,r1
++        161 [xor: 0x1b03aa16] {270} @ 0x12000e008: beq r1,0x12000e020
++        162 [xor: 0x1b03aa2a] {271} @ 0x12000e020: lda r16,16(r16)
++        163 [xor: 0x28349309] {272} @ 0x12000e024: ldq r2,0(r16)
++        164 [xor: 0x2834932d] {274} @ 0x12000e028: bne r2,0x12000e000
++        165 [xor: 0x28349304] {275} @ 0x12000e000: lda r2,-3(r2)
++        166 [xor: 0x2834930c] {276} @ 0x12000e004: cmpule r2,34,r1
++        167 [xor: 0x28349328] {277} @ 0x12000e008: beq r1,0x12000e020
       159 @ 0x12000e000: lda r2,-3(r2)
++        168 [xor: 0x283492f4] {278} @ 0x12000e020: lda r16,16(r16)
++        169 [xor: 0x3b348def] {279} @ 0x12000e024: ldq r2,0(r16)
++        170 [xor: 0x3b348dcb] {281} @ 0x12000e028: bne r2,0x12000e000
       160 @ 0x12000e004: cmpule r2,34,r1
++        171 [xor: 0x3b348dda] {282} @ 0x12000e000: lda r2,-3(r2)
++        172 [xor: 0x3b348dd2] {283} @ 0x12000e004: cmpule r2,34,r1
++        173 [xor: 0x3b348df6] {284} @ 0x12000e008: beq r1,0x12000e020
       161 @ 0x12000e008: beq r1,0x12000e020
       162 @ 0x12000e020: lda r16,16(r16)
++        174 [xor: 0x3b348dca] {285} @ 0x12000e020: lda r16,16(r16)
++        175 [xor: 0x1051dcfe] {286} @ 0x12000e024: ldq r2,0(r16)
++        176 [xor: 0x1051dcda] {288} @ 0x12000e028: bne r2,0x12000e000
       163 @ 0x12000e024: ldq r2,0(r16)
++        177 [xor: 0x1051dceb] {289} @ 0x12000e000: lda r2,-3(r2)
++        178 [xor: 0x1051dce3] {290} @ 0x12000e004: cmpule r2,34,r1
++        179 [xor: 0x1051dcc7] {291} @ 0x12000e008: beq r1,0x12000e020
       164 @ 0x12000e028: bne r2,0x12000e000
       165 @ 0x12000e000: lda r2,-3(r2)
++        180 [xor: 0x1051dcdb] {292} @ 0x12000e020: lda r16,16(r16)
++        181 [xor: 0x1a0db8b1] {293} @ 0x12000e024: ldq r2,0(r16)
       166 @ 0x12000e004: cmpule r2,34,r1
++        182 [xor: 0x1a0db895] {295} @ 0x12000e028: bne r2,0x12000e000
       167 @ 0x12000e008: beq r1,0x12000e020
       168 @ 0x12000e020: lda r16,16(r16)
       169 @ 0x12000e024: ldq r2,0(r16)
       170 @ 0x12000e028: bne r2,0x12000e000
++        183 [xor: 0x1a0db8a4] {296} @ 0x12000e000: lda r2,-3(r2)
++        184 [xor: 0x1a0db8ac] {297} @ 0x12000e004: cmpule r2,34,r1
++        185 [xor: 0x1a0db888] {298} @ 0x12000e008: beq r1,0x12000e020
++        186 [xor: 0x1a0db8b4] {299} @ 0x12000e020: lda r16,16(r16)
       171 @ 0x12000e000: lda r2,-3(r2)
       172 @ 0x12000e004: cmpule r2,34,r1
++        187 [xor: 0x0709fbc7] {300} @ 0x12000e024: ldq r2,0(r16)
++        188 [xor: 0x0709fbe3] {302} @ 0x12000e028: bne r2,0x12000e000
       173 @ 0x12000e008: beq r1,0x12000e020
       174 @ 0x12000e020: lda r16,16(r16)
       175 @ 0x12000e024: ldq r2,0(r16)
       176 @ 0x12000e028: bne r2,0x12000e000
++        189 [xor: 0x0709fbd2] {303} @ 0x12000e000: lda r2,-3(r2)
++        190 [xor: 0x0709fbda] {304} @ 0x12000e004: cmpule r2,34,r1
++        191 [xor: 0x0709fbfe] {305} @ 0x12000e008: beq r1,0x12000e020
       177 @ 0x12000e000: lda r2,-3(r2)
       178 @ 0x12000e004: cmpule r2,34,r1
++        192 [xor: 0x0709fba2] {306} @ 0x12000e020: lda r16,16(r16)
++        193 [xor: 0x747282b9] {307} @ 0x12000e024: ldq r2,0(r16)
++        194 [xor: 0x7472829d] {309} @ 0x12000e028: bne r2,0x12000e000
       179 @ 0x12000e008: beq r1,0x12000e020
       180 @ 0x12000e020: lda r16,16(r16)
       181 @ 0x12000e024: ldq r2,0(r16)
       182 @ 0x12000e028: bne r2,0x12000e000
++        195 [xor: 0x747282b4] {310} @ 0x12000e000: lda r2,-3(r2)
++        196 [xor: 0x747282bc] {311} @ 0x12000e004: cmpule r2,34,r1
++        197 [xor: 0x74728298] {312} @ 0x12000e008: beq r1,0x12000e020
       183 @ 0x12000e000: lda r2,-3(r2)
       184 @ 0x12000e004: cmpule r2,34,r1
++        198 [xor: 0x747282a4] {313} @ 0x12000e020: lda r16,16(r16)
++        199 [xor: 0x1f0de7ef] {314} @ 0x12000e024: ldq r2,0(r16)
++        200 [xor: 0x1f0de7cb] {316} @ 0x12000e028: bne r2,0x12000e000
       185 @ 0x12000e008: beq r1,0x12000e020
       186 @ 0x12000e020: lda r16,16(r16)
       187 @ 0x12000e024: ldq r2,0(r16)
       188 @ 0x12000e028: bne r2,0x12000e000
++        201 [xor: 0x1f0de7e0] {317} @ 0x12000e000: lda r2,-3(r2)
++        202 [xor: 0x1f0de7e8] {318} @ 0x12000e004: cmpule r2,34,r1
++        203 [xor: 0x1f0de7cc] {319} @ 0x12000e008: beq r1,0x12000e020
       189 @ 0x12000e000: lda r2,-3(r2)
       190 @ 0x12000e004: cmpule r2,34,r1
++        204 [xor: 0x1f0de7d0] {320} @ 0x12000e020: lda r16,16(r16)
++        205 [xor: 0x5358aee0] {321} @ 0x12000e024: ldq r2,0(r16)
++        206 [xor: 0x5358aec4] {323} @ 0x12000e028: bne r2,0x12000e000
       191 @ 0x12000e008: beq r1,0x12000e020
       192 @ 0x12000e020: lda r16,16(r16)
       193 @ 0x12000e024: ldq r2,0(r16)
++        207 [xor: 0x5358aef5] {324} @ 0x12000e000: lda r2,-3(r2)
++        208 [xor: 0x5358aefd] {325} @ 0x12000e004: cmpule r2,34,r1
++        209 [xor: 0x5358aed9] {326} @ 0x12000e008: beq r1,0x12000e020
       194 @ 0x12000e028: bne r2,0x12000e000
       195 @ 0x12000e000: lda r2,-3(r2)
++        210 [xor: 0x5358aee5] {327} @ 0x12000e020: lda r16,16(r16)
++        211 [xor: 0x0e5bf8f7] {328} @ 0x12000e024: ldq r2,0(r16)
       196 @ 0x12000e004: cmpule r2,34,r1
++        212 [xor: 0x0e5bf8d3] {330} @ 0x12000e028: bne r2,0x12000e000
       197 @ 0x12000e008: beq r1,0x12000e020
       198 @ 0x12000e020: lda r16,16(r16)
       199 @ 0x12000e024: ldq r2,0(r16)
       200 @ 0x12000e028: bne r2,0x12000e000
++        213 [xor: 0x0e5bf8f2] {331} @ 0x12000e000: lda r2,-3(r2)
++        214 [xor: 0x0e5bf8fa] {332} @ 0x12000e004: cmpule r2,34,r1
++        215 [xor: 0x0e5bf8de] {333} @ 0x12000e008: beq r1,0x12000e020
++        216 [xor: 0x0e5bf802] {334} @ 0x12000e020: lda r16,16(r16)
       201 @ 0x12000e000: lda r2,-3(r2)
       202 @ 0x12000e004: cmpule r2,34,r1
++        217 [xor: 0x4304aa51] {335} @ 0x12000e024: ldq r2,0(r16)
++        218 [xor: 0x4304aa75] {337} @ 0x12000e028: bne r2,0x12000e000
       203 @ 0x12000e008: beq r1,0x12000e020
       204 @ 0x12000e020: lda r16,16(r16)
       205 @ 0x12000e024: ldq r2,0(r16)
       206 @ 0x12000e028: bne r2,0x12000e000
++        219 [xor: 0x4304aa5a] {338} @ 0x12000e000: lda r2,-3(r2)
++        220 [xor: 0x4304aa52] {339} @ 0x12000e004: cmpule r2,34,r1
++        221 [xor: 0x4304aa76] {340} @ 0x12000e008: beq r1,0x12000e020
       207 @ 0x12000e000: lda r2,-3(r2)
       208 @ 0x12000e004: cmpule r2,34,r1
++        222 [xor: 0x4304aa4a] {341} @ 0x12000e020: lda r16,16(r16)
++        223 [xor: 0x090caf16] {342} @ 0x12000e024: ldq r2,0(r16)
++        224 [xor: 0x090caf32] {344} @ 0x12000e028: bne r2,0x12000e000
       209 @ 0x12000e008: beq r1,0x12000e020
       210 @ 0x12000e020: lda r16,16(r16)
       211 @ 0x12000e024: ldq r2,0(r16)
       212 @ 0x12000e028: bne r2,0x12000e000
++        225 [xor: 0x090caf03] {345} @ 0x12000e000: lda r2,-3(r2)
++        226 [xor: 0x090caf0b] {346} @ 0x12000e004: cmpule r2,34,r1
++        227 [xor: 0x090caf2f] {347} @ 0x12000e008: beq r1,0x12000e020
       213 @ 0x12000e000: lda r2,-3(r2)
       214 @ 0x12000e004: cmpule r2,34,r1
++        228 [xor: 0x090caf33] {348} @ 0x12000e020: lda r16,16(r16)
++        229 [xor: 0x0a02e679] {349} @ 0x12000e024: ldq r2,0(r16)
++        230 [xor: 0x0a02e65d] {351} @ 0x12000e028: bne r2,0x12000e000
       215 @ 0x12000e008: beq r1,0x12000e020
       216 @ 0x12000e020: lda r16,16(r16)
       217 @ 0x12000e024: ldq r2,0(r16)
       218 @ 0x12000e028: bne r2,0x12000e000
++        231 [xor: 0x0a02e672] {352} @ 0x12000e000: lda r2,-3(r2)
++        232 [xor: 0x0a02e67a] {353} @ 0x12000e004: cmpule r2,34,r1
++        233 [xor: 0x0a02e65e] {354} @ 0x12000e008: beq r1,0x12000e020
       219 @ 0x12000e000: lda r2,-3(r2)
       220 @ 0x12000e004: cmpule r2,34,r1
++        234 [xor: 0x0a02e662] {355} @ 0x12000e020: lda r16,16(r16)
++        235 [xor: 0x5c04a860] {356} @ 0x12000e024: ldq r2,0(r16)
++        236 [xor: 0x5c04a844] {358} @ 0x12000e028: bne r2,0x12000e000
       221 @ 0x12000e008: beq r1,0x12000e020
       222 @ 0x12000e020: lda r16,16(r16)
       223 @ 0x12000e024: ldq r2,0(r16)
++        237 [xor: 0x5c04a86d] {359} @ 0x12000e000: lda r2,-3(r2)
++        238 [xor: 0x5c04a865] {360} @ 0x12000e004: cmpule r2,34,r1
++        239 [xor: 0x5c04a841] {361} @ 0x12000e008: beq r1,0x12000e020
       224 @ 0x12000e028: bne r2,0x12000e000
       225 @ 0x12000e000: lda r2,-3(r2)
++        240 [xor: 0x5c04a81d] {362} @ 0x12000e020: lda r16,16(r16)
++        241 [xor: 0x435bae41] {363} @ 0x12000e024: ldq r2,0(r16)
       226 @ 0x12000e004: cmpule r2,34,r1
++        242 [xor: 0x435bae65] {365} @ 0x12000e028: bne r2,0x12000e000
       227 @ 0x12000e008: beq r1,0x12000e020
       228 @ 0x12000e020: lda r16,16(r16)
       229 @ 0x12000e024: ldq r2,0(r16)
       230 @ 0x12000e028: bne r2,0x12000e000
++        243 [xor: 0x435bae56] {366} @ 0x12000e000: lda r2,-3(r2)
++        244 [xor: 0x435bae5e] {367} @ 0x12000e004: cmpule r2,34,r1
++        245 [xor: 0x435bae7a] {368} @ 0x12000e008: beq r1,0x12000e020
++        246 [xor: 0x435bae46] {369} @ 0x12000e020: lda r16,16(r16)
       231 @ 0x12000e000: lda r2,-3(r2)
       232 @ 0x12000e004: cmpule r2,34,r1
++        247 [xor: 0x1104a653] {370} @ 0x12000e024: ldq r2,0(r16)
++        248 [xor: 0x1104a677] {372} @ 0x12000e028: bne r2,0x12000e000
       233 @ 0x12000e008: beq r1,0x12000e020
       234 @ 0x12000e020: lda r16,16(r16)
       235 @ 0x12000e024: ldq r2,0(r16)
       236 @ 0x12000e028: bne r2,0x12000e000
++        249 [xor: 0x1104a65c] {373} @ 0x12000e000: lda r2,-3(r2)
++        250 [xor: 0x1104a654] {374} @ 0x12000e004: cmpule r2,34,r1
++        251 [xor: 0x1104a670] {375} @ 0x12000e008: beq r1,0x12000e020
       237 @ 0x12000e000: lda r2,-3(r2)
       238 @ 0x12000e004: cmpule r2,34,r1
++        252 [xor: 0x1104a66c] {376} @ 0x12000e020: lda r16,16(r16)
++        253 [xor: 0x475bf570] {377} @ 0x12000e024: ldq r2,0(r16)
++        254 [xor: 0x475bf554] {379} @ 0x12000e028: bne r2,0x12000e000
       239 @ 0x12000e008: beq r1,0x12000e020
       240 @ 0x12000e020: lda r16,16(r16)
       241 @ 0x12000e024: ldq r2,0(r16)
       242 @ 0x12000e028: bne r2,0x12000e000
++        255 [xor: 0x475bf57b] {380} @ 0x12000e000: lda r2,-3(r2)
++        256 [xor: 0x475bf573] {381} @ 0x12000e004: cmpule r2,34,r1
++        257 [xor: 0x475bf557] {382} @ 0x12000e008: beq r1,0x12000e020
       243 @ 0x12000e000: lda r2,-3(r2)
       244 @ 0x12000e004: cmpule r2,34,r1
++        258 [xor: 0x475bf56b] {383} @ 0x12000e020: lda r16,16(r16)
++        259 [xor: 0x564af66e] {384} @ 0x12000e024: ldq r2,0(r16)
++        260 [xor: 0x564af64a] {386} @ 0x12000e028: bne r2,0x12000e000
       245 @ 0x12000e008: beq r1,0x12000e020
       246 @ 0x12000e020: lda r16,16(r16)
       247 @ 0x12000e024: ldq r2,0(r16)
       248 @ 0x12000e028: bne r2,0x12000e000
++        261 [xor: 0x564af663] {387} @ 0x12000e000: lda r2,-3(r2)
++        262 [xor: 0x564af66b] {388} @ 0x12000e004: cmpule r2,34,r1
++        263 [xor: 0x564af64f] {389} @ 0x12000e008: beq r1,0x12000e020
       249 @ 0x12000e000: lda r2,-3(r2)
       250 @ 0x12000e004: cmpule r2,34,r1
++        264 [xor: 0x564af593] {390} @ 0x12000e020: lda r16,16(r16)
++        265 [xor: 0x1104a583] {391} @ 0x12000e024: ldq r2,0(r16)
++        266 [xor: 0x1104a5a7] {393} @ 0x12000e028: bne r2,0x12000e000
       251 @ 0x12000e008: beq r1,0x12000e020
       252 @ 0x12000e020: lda r16,16(r16)
       253 @ 0x12000e024: ldq r2,0(r16)
++        267 [xor: 0x1104a58c] {394} @ 0x12000e000: lda r2,-3(r2)
++        268 [xor: 0x1104a584] {395} @ 0x12000e004: cmpule r2,34,r1
++        269 [xor: 0x1104a5a0] {396} @ 0x12000e008: beq r1,0x12000e020
       254 @ 0x12000e028: bne r2,0x12000e000
       255 @ 0x12000e000: lda r2,-3(r2)
++        270 [xor: 0x1104a59c] {397} @ 0x12000e020: lda r16,16(r16)
++        271 [xor: 0x134ceecc] {398} @ 0x12000e024: ldq r2,0(r16)
       256 @ 0x12000e004: cmpule r2,34,r1
++        272 [xor: 0x134ceee8] {400} @ 0x12000e028: bne r2,0x12000e000
       257 @ 0x12000e008: beq r1,0x12000e020
       258 @ 0x12000e020: lda r16,16(r16)
       259 @ 0x12000e024: ldq r2,0(r16)
       260 @ 0x12000e028: bne r2,0x12000e000
++        273 [xor: 0x134ceed9] {401} @ 0x12000e000: lda r2,-3(r2)
++        274 [xor: 0x134ceed1] {402} @ 0x12000e004: cmpule r2,34,r1
++        275 [xor: 0x134ceef5] {403} @ 0x12000e008: beq r1,0x12000e020
++        276 [xor: 0x134ceee9] {404} @ 0x12000e020: lda r16,16(r16)
       261 @ 0x12000e000: lda r2,-3(r2)
       262 @ 0x12000e004: cmpule r2,34,r1
++        277 [xor: 0x0e47f6e9] {405} @ 0x12000e024: ldq r2,0(r16)
++        278 [xor: 0x0e47f6cd] {407} @ 0x12000e028: bne r2,0x12000e000
       263 @ 0x12000e008: beq r1,0x12000e020
       264 @ 0x12000e020: lda r16,16(r16)
       265 @ 0x12000e024: ldq r2,0(r16)
       266 @ 0x12000e028: bne r2,0x12000e000
++        279 [xor: 0x0e47f6e4] {408} @ 0x12000e000: lda r2,-3(r2)
++        280 [xor: 0x0e47f6ec] {409} @ 0x12000e004: cmpule r2,34,r1
++        281 [xor: 0x0e47f6c8] {410} @ 0x12000e008: beq r1,0x12000e020
       267 @ 0x12000e000: lda r2,-3(r2)
       268 @ 0x12000e004: cmpule r2,34,r1
++        282 [xor: 0x0e47f6f4] {411} @ 0x12000e020: lda r16,16(r16)
++        283 [xor: 0x1d1fadbc] {412} @ 0x12000e024: ldq r2,0(r16)
++        284 [xor: 0x1d1fad98] {414} @ 0x12000e028: bne r2,0x12000e000
       269 @ 0x12000e008: beq r1,0x12000e020
       270 @ 0x12000e020: lda r16,16(r16)
       271 @ 0x12000e024: ldq r2,0(r16)
       272 @ 0x12000e028: bne r2,0x12000e000
++        285 [xor: 0x1d1fada9] {415} @ 0x12000e000: lda r2,-3(r2)
++        286 [xor: 0x1d1fada1] {416} @ 0x12000e004: cmpule r2,34,r1
++        287 [xor: 0x1d1fad85] {417} @ 0x12000e008: beq r1,0x12000e020
       273 @ 0x12000e000: lda r2,-3(r2)
       274 @ 0x12000e004: cmpule r2,34,r1
++        288 [xor: 0x1d1fadd9] {418} @ 0x12000e020: lda r16,16(r16)
++        289 [xor: 0x135efc88] {419} @ 0x12000e024: ldq r2,0(r16)
++        290 [xor: 0x135efcac] {421} @ 0x12000e028: bne r2,0x12000e000
       275 @ 0x12000e008: beq r1,0x12000e020
       276 @ 0x12000e020: lda r16,16(r16)
       277 @ 0x12000e024: ldq r2,0(r16)
       278 @ 0x12000e028: bne r2,0x12000e000
++        291 [xor: 0x135efc9f] {422} @ 0x12000e000: lda r2,-3(r2)
++        292 [xor: 0x135efc97] {423} @ 0x12000e004: cmpule r2,34,r1
++        293 [xor: 0x135efcb3] {424} @ 0x12000e008: beq r1,0x12000e020
       279 @ 0x12000e000: lda r2,-3(r2)
       280 @ 0x12000e004: cmpule r2,34,r1
++        294 [xor: 0x135efc8f] {425} @ 0x12000e020: lda r16,16(r16)
++        295 [xor: 0x0e5ded81] {426} @ 0x12000e024: ldq r2,0(r16)
++        296 [xor: 0x0e5deda5] {428} @ 0x12000e028: bne r2,0x12000e000
       281 @ 0x12000e008: beq r1,0x12000e020
       282 @ 0x12000e020: lda r16,16(r16)
       283 @ 0x12000e024: ldq r2,0(r16)
++        297 [xor: 0x0e5ded8c] {429} @ 0x12000e000: lda r2,-3(r2)
++        298 [xor: 0x0e5ded84] {430} @ 0x12000e004: cmpule r2,34,r1
++        299 [xor: 0x0e5deda0] {431} @ 0x12000e008: beq r1,0x12000e020
       284 @ 0x12000e028: bne r2,0x12000e000
       285 @ 0x12000e000: lda r2,-3(r2)
++        300 [xor: 0x0e5dedbc] {432} @ 0x12000e020: lda r16,16(r16)
++        301 [xor: 0x1d1fadec] {433} @ 0x12000e024: ldq r2,0(r16)
       286 @ 0x12000e004: cmpule r2,34,r1
++        302 [xor: 0x1d1fadc8] {435} @ 0x12000e028: bne r2,0x12000e000
       287 @ 0x12000e008: beq r1,0x12000e020
       288 @ 0x12000e020: lda r16,16(r16)
       289 @ 0x12000e024: ldq r2,0(r16)
       290 @ 0x12000e028: bne r2,0x12000e000
++        303 [xor: 0x1d1fadf9] {436} @ 0x12000e000: lda r2,-3(r2)
++        304 [xor: 0x1d1fadf1] {437} @ 0x12000e004: cmpule r2,34,r1
++        305 [xor: 0x1d1fadd5] {438} @ 0x12000e008: beq r1,0x12000e020
++        306 [xor: 0x1d1fade9] {439} @ 0x12000e020: lda r16,16(r16)
       291 @ 0x12000e000: lda r2,-3(r2)
       292 @ 0x12000e004: cmpule r2,34,r1
++        307 [xor: 0x0e6fb9e7] {440} @ 0x12000e024: ldq r2,0(r16)
++        308 [xor: 0x0e6fb9c3] {442} @ 0x12000e028: bne r2,0x12000e000
       293 @ 0x12000e008: beq r1,0x12000e020
       294 @ 0x12000e020: lda r16,16(r16)
       295 @ 0x12000e024: ldq r2,0(r16)
       296 @ 0x12000e028: bne r2,0x12000e000
++        309 [xor: 0x0e6fb9e2] {443} @ 0x12000e000: lda r2,-3(r2)
++        310 [xor: 0x0e6fb9ea] {444} @ 0x12000e004: cmpule r2,34,r1
++        311 [xor: 0x0e6fb9ce] {445} @ 0x12000e008: beq r1,0x12000e020
       297 @ 0x12000e000: lda r2,-3(r2)
       298 @ 0x12000e004: cmpule r2,34,r1
++        312 [xor: 0x0e6fb912] {446} @ 0x12000e020: lda r16,16(r16)
++        313 [xor: 0x5313b607] {447} @ 0x12000e024: ldq r2,0(r16)
++        314 [xor: 0x5313b623] {449} @ 0x12000e028: bne r2,0x12000e000
       299 @ 0x12000e008: beq r1,0x12000e020
       300 @ 0x12000e020: lda r16,16(r16)
       301 @ 0x12000e024: ldq r2,0(r16)
       302 @ 0x12000e028: bne r2,0x12000e000
++        315 [xor: 0x5313b612] {450} @ 0x12000e000: lda r2,-3(r2)
++        316 [xor: 0x5313b61a] {451} @ 0x12000e004: cmpule r2,34,r1
++        317 [xor: 0x5313b63e] {452} @ 0x12000e008: beq r1,0x12000e020
       303 @ 0x12000e000: lda r2,-3(r2)
       304 @ 0x12000e004: cmpule r2,34,r1
++        318 [xor: 0x5313b602] {453} @ 0x12000e020: lda r16,16(r16)
++        319 [xor: 0x5210b05d] {454} @ 0x12000e024: ldq r2,0(r16)
++        320 [xor: 0x5210b079] {456} @ 0x12000e028: bne r2,0x12000e000
       305 @ 0x12000e008: beq r1,0x12000e020
       306 @ 0x12000e020: lda r16,16(r16)
       307 @ 0x12000e024: ldq r2,0(r16)
       308 @ 0x12000e028: bne r2,0x12000e000
++        321 [xor: 0x5210b058] {457} @ 0x12000e000: lda r2,-3(r2)
++        322 [xor: 0x5210b050] {458} @ 0x12000e004: cmpule r2,34,r1
++        323 [xor: 0x5210b074] {459} @ 0x12000e008: beq r1,0x12000e020
       309 @ 0x12000e000: lda r2,-3(r2)
       310 @ 0x12000e004: cmpule r2,34,r1
++        324 [xor: 0x5210b068] {460} @ 0x12000e020: lda r16,16(r16)
++        325 [xor: 0x1104a623] {461} @ 0x12000e024: ldq r2,0(r16)
++        326 [xor: 0x1104a607] {463} @ 0x12000e028: bne r2,0x12000e000
       311 @ 0x12000e008: beq r1,0x12000e020
       312 @ 0x12000e020: lda r16,16(r16)
       313 @ 0x12000e024: ldq r2,0(r16)
++        327 [xor: 0x1104a62c] {464} @ 0x12000e000: lda r2,-3(r2)
++        328 [xor: 0x1104a624] {465} @ 0x12000e004: cmpule r2,34,r1
++        329 [xor: 0x1104a600] {466} @ 0x12000e008: beq r1,0x12000e020
       314 @ 0x12000e028: bne r2,0x12000e000
       315 @ 0x12000e000: lda r2,-3(r2)
++        330 [xor: 0x1104a63c] {467} @ 0x12000e020: lda r16,16(r16)
++        331 [xor: 0x4344f520] {468} @ 0x12000e024: ldq r2,0(r16)
       316 @ 0x12000e004: cmpule r2,34,r1
++        332 [xor: 0x4344f504] {470} @ 0x12000e028: bne r2,0x12000e000
       317 @ 0x12000e008: beq r1,0x12000e020
       318 @ 0x12000e020: lda r16,16(r16)
       319 @ 0x12000e024: ldq r2,0(r16)
       320 @ 0x12000e028: bne r2,0x12000e000
++        333 [xor: 0x4344f52b] {471} @ 0x12000e000: lda r2,-3(r2)
++        334 [xor: 0x4344f523] {472} @ 0x12000e004: cmpule r2,34,r1
++        335 [xor: 0x4344f507] {473} @ 0x12000e008: beq r1,0x12000e020
++        336 [xor: 0x4344f55b] {474} @ 0x12000e020: lda r16,16(r16)
       321 @ 0x12000e000: lda r2,-3(r2)
       322 @ 0x12000e004: cmpule r2,34,r1
++        337 [xor: 0x4054b400] {475} @ 0x12000e024: ldq r2,0(r16)
++        338 [xor: 0x4054b424] {477} @ 0x12000e028: bne r2,0x12000e000
       323 @ 0x12000e008: beq r1,0x12000e020
       324 @ 0x12000e020: lda r16,16(r16)
       325 @ 0x12000e024: ldq r2,0(r16)
       326 @ 0x12000e028: bne r2,0x12000e000
++        339 [xor: 0x4054b405] {478} @ 0x12000e000: lda r2,-3(r2)
++        340 [xor: 0x4054b40d] {479} @ 0x12000e004: cmpule r2,34,r1
++        341 [xor: 0x4054b429] {480} @ 0x12000e008: beq r1,0x12000e020
       327 @ 0x12000e000: lda r2,-3(r2)
       328 @ 0x12000e004: cmpule r2,34,r1
++        342 [xor: 0x4054b415] {481} @ 0x12000e020: lda r16,16(r16)
++        343 [xor: 0x0a0ba900] {482} @ 0x12000e024: ldq r2,0(r16)
++        344 [xor: 0x0a0ba924] {484} @ 0x12000e028: bne r2,0x12000e000
       329 @ 0x12000e008: beq r1,0x12000e020
       330 @ 0x12000e020: lda r16,16(r16)
       331 @ 0x12000e024: ldq r2,0(r16)
       332 @ 0x12000e028: bne r2,0x12000e000
++        345 [xor: 0x0a0ba90d] {485} @ 0x12000e000: lda r2,-3(r2)
++        346 [xor: 0x0a0ba905] {486} @ 0x12000e004: cmpule r2,34,r1
++        347 [xor: 0x0a0ba921] {487} @ 0x12000e008: beq r1,0x12000e020
       333 @ 0x12000e000: lda r2,-3(r2)
       334 @ 0x12000e004: cmpule r2,34,r1
++        348 [xor: 0x0a0ba93d] {488} @ 0x12000e020: lda r16,16(r16)
++        349 [xor: 0x5843ba7c] {489} @ 0x12000e024: ldq r2,0(r16)
++        350 [xor: 0x5843ba58] {491} @ 0x12000e028: bne r2,0x12000e000
       335 @ 0x12000e008: beq r1,0x12000e020
       336 @ 0x12000e020: lda r16,16(r16)
       337 @ 0x12000e024: ldq r2,0(r16)
       338 @ 0x12000e028: bne r2,0x12000e000
++        351 [xor: 0x5843ba77] {492} @ 0x12000e000: lda r2,-3(r2)
++        352 [xor: 0x5843ba7f] {493} @ 0x12000e004: cmpule r2,34,r1
++        353 [xor: 0x5843ba5b] {494} @ 0x12000e008: beq r1,0x12000e020
       339 @ 0x12000e000: lda r2,-3(r2)
       340 @ 0x12000e004: cmpule r2,34,r1
++        354 [xor: 0x5843ba67] {495} @ 0x12000e020: lda r16,16(r16)
++        355 [xor: 0x4046b43a] {496} @ 0x12000e024: ldq r2,0(r16)
++        356 [xor: 0x4046b41e] {498} @ 0x12000e028: bne r2,0x12000e000
       341 @ 0x12000e008: beq r1,0x12000e020
       342 @ 0x12000e020: lda r16,16(r16)
       343 @ 0x12000e024: ldq r2,0(r16)
++        357 [xor: 0x4046b43f] {499} @ 0x12000e000: lda r2,-3(r2)
++        358 [xor: 0x4046b437] {500} @ 0x12000e004: cmpule r2,34,r1
++        359 [xor: 0x4046b413] {501} @ 0x12000e008: beq r1,0x12000e020
       344 @ 0x12000e028: bne r2,0x12000e000
       345 @ 0x12000e000: lda r2,-3(r2)
++        360 [xor: 0x4046b5cf] {502} @ 0x12000e020: lda r16,16(r16)
++        361 [xor: 0x0a0ba8d1] {503} @ 0x12000e024: ldq r2,0(r16)
       346 @ 0x12000e004: cmpule r2,34,r1
++        362 [xor: 0x0a0ba8f5] {505} @ 0x12000e028: bne r2,0x12000e000
       347 @ 0x12000e008: beq r1,0x12000e020
       348 @ 0x12000e020: lda r16,16(r16)
       349 @ 0x12000e024: ldq r2,0(r16)
       350 @ 0x12000e028: bne r2,0x12000e000
++        363 [xor: 0x0a0ba8da] {506} @ 0x12000e000: lda r2,-3(r2)
++        364 [xor: 0x0a0ba8d2] {507} @ 0x12000e004: cmpule r2,34,r1
++        365 [xor: 0x0a0ba8f6] {508} @ 0x12000e008: beq r1,0x12000e020
++        366 [xor: 0x0a0ba8ca] {509} @ 0x12000e020: lda r16,16(r16)
       351 @ 0x12000e000: lda r2,-3(r2)
       352 @ 0x12000e004: cmpule r2,34,r1
++        367 [xor: 0x737ad8a6] {510} @ 0x12000e024: ldq r2,0(r16)
++        368 [xor: 0x737ad882] {512} @ 0x12000e028: bne r2,0x12000e000
       353 @ 0x12000e008: beq r1,0x12000e020
       354 @ 0x12000e020: lda r16,16(r16)
       355 @ 0x12000e024: ldq r2,0(r16)
       356 @ 0x12000e028: bne r2,0x12000e000
++        369 [xor: 0x737ad8ad] {513} @ 0x12000e000: lda r2,-3(r2)
++        370 [xor: 0x737ad8a5] {514} @ 0x12000e004: cmpule r2,34,r1
++        371 [xor: 0x737ad881] {515} @ 0x12000e008: beq r1,0x12000e020
       357 @ 0x12000e000: lda r2,-3(r2)
       358 @ 0x12000e004: cmpule r2,34,r1
++        372 [xor: 0x737ad89d] {516} @ 0x12000e020: lda r16,16(r16)
++        373 [xor: 0x0500a4f2] {517} @ 0x12000e024: ldq r2,0(r16)
++        374 [xor: 0x0500a4d6] {519} @ 0x12000e028: bne r2,0x12000e000
       359 @ 0x12000e008: beq r1,0x12000e020
       360 @ 0x12000e020: lda r16,16(r16)
       361 @ 0x12000e024: ldq r2,0(r16)
       362 @ 0x12000e028: bne r2,0x12000e000
++        375 [xor: 0x0500a4e7] {520} @ 0x12000e000: lda r2,-3(r2)
++        376 [xor: 0x0500a4ef] {521} @ 0x12000e004: cmpule r2,34,r1
++        377 [xor: 0x0500a4cb] {522} @ 0x12000e008: beq r1,0x12000e020
       363 @ 0x12000e000: lda r2,-3(r2)
       364 @ 0x12000e004: cmpule r2,34,r1
++        378 [xor: 0x0500a4f7] {523} @ 0x12000e020: lda r16,16(r16)
++        379 [xor: 0x6e63ee84] {524} @ 0x12000e024: ldq r2,0(r16)
++        380 [xor: 0x6e63eea0] {526} @ 0x12000e028: bne r2,0x12000e000
       365 @ 0x12000e008: beq r1,0x12000e020
       366 @ 0x12000e020: lda r16,16(r16)
       367 @ 0x12000e024: ldq r2,0(r16)
       368 @ 0x12000e028: bne r2,0x12000e000
++        381 [xor: 0x6e63ee8b] {527} @ 0x12000e000: lda r2,-3(r2)
++        382 [xor: 0x6e63ee83] {528} @ 0x12000e004: cmpule r2,34,r1
++        383 [xor: 0x6e63eea7] {529} @ 0x12000e008: beq r1,0x12000e020
       369 @ 0x12000e000: lda r2,-3(r2)
       370 @ 0x12000e004: cmpule r2,34,r1
++        384 [xor: 0x6e63eefb] {530} @ 0x12000e020: lda r16,16(r16)
++        385 [xor: 0x1d08b687] {531} @ 0x12000e024: ldq r2,0(r16)
++        386 [xor: 0x1d08b6a3] {533} @ 0x12000e028: bne r2,0x12000e000
       371 @ 0x12000e008: beq r1,0x12000e020
       372 @ 0x12000e020: lda r16,16(r16)
       373 @ 0x12000e024: ldq r2,0(r16)
++        387 [xor: 0x1d08b688] {534} @ 0x12000e000: lda r2,-3(r2)
++        388 [xor: 0x1d08b680] {535} @ 0x12000e004: cmpule r2,34,r1
++        389 [xor: 0x1d08b6a4] {536} @ 0x12000e008: beq r1,0x12000e020
       374 @ 0x12000e028: bne r2,0x12000e000
       375 @ 0x12000e000: lda r2,-3(r2)
++        390 [xor: 0x1d08b698] {537} @ 0x12000e020: lda r16,16(r16)
++        391 [xor: 0x150caedc] {538} @ 0x12000e024: ldq r2,0(r16)
       376 @ 0x12000e004: cmpule r2,34,r1
++        392 [xor: 0x150caef8] {540} @ 0x12000e028: bne r2,0x12000e000
       377 @ 0x12000e008: beq r1,0x12000e020
       378 @ 0x12000e020: lda r16,16(r16)
       379 @ 0x12000e024: ldq r2,0(r16)
       380 @ 0x12000e028: bne r2,0x12000e000
++        393 [xor: 0x150caed7] {541} @ 0x12000e000: lda r2,-3(r2)
++        394 [xor: 0x150caedf] {542} @ 0x12000e004: cmpule r2,34,r1
++        395 [xor: 0x150caefb] {543} @ 0x12000e008: beq r1,0x12000e020
++        396 [xor: 0x150caee7] {544} @ 0x12000e020: lda r16,16(r16)
       381 @ 0x12000e000: lda r2,-3(r2)
       382 @ 0x12000e004: cmpule r2,34,r1
++        397 [xor: 0x0143b3f1] {545} @ 0x12000e024: ldq r2,0(r16)
++        398 [xor: 0x0143b3d5] {547} @ 0x12000e028: bne r2,0x12000e000
       383 @ 0x12000e008: beq r1,0x12000e020
       384 @ 0x12000e020: lda r16,16(r16)
       385 @ 0x12000e024: ldq r2,0(r16)
       386 @ 0x12000e028: bne r2,0x12000e000
++        399 [xor: 0x0143b3e4] {548} @ 0x12000e000: lda r2,-3(r2)
++        400 [xor: 0x0143b3ec] {549} @ 0x12000e004: cmpule r2,34,r1
++        401 [xor: 0x0143b3c8] {550} @ 0x12000e008: beq r1,0x12000e020
       387 @ 0x12000e000: lda r2,-3(r2)
       388 @ 0x12000e004: cmpule r2,34,r1
++        402 [xor: 0x0143b3f4] {551} @ 0x12000e020: lda r16,16(r16)
++        403 [xor: 0x2f0daaf7] {552} @ 0x12000e024: ldq r2,0(r16)
++        404 [xor: 0x2f0daad3] {554} @ 0x12000e028: bne r2,0x12000e000
       389 @ 0x12000e008: beq r1,0x12000e020
       390 @ 0x12000e020: lda r16,16(r16)
       391 @ 0x12000e024: ldq r2,0(r16)
       392 @ 0x12000e028: bne r2,0x12000e000
++        405 [xor: 0x2f0daaf2] {555} @ 0x12000e000: lda r2,-3(r2)
++        406 [xor: 0x2f0daafa] {556} @ 0x12000e004: cmpule r2,34,r1
++        407 [xor: 0x2f0daade] {557} @ 0x12000e008: beq r1,0x12000e020
       393 @ 0x12000e000: lda r2,-3(r2)
       394 @ 0x12000e004: cmpule r2,34,r1
++        408 [xor: 0x2f0daa02] {558} @ 0x12000e020: lda r16,16(r16)
++        409 [xor: 0x1314aa0d] {559} @ 0x12000e024: ldq r2,0(r16)
++        410 [xor: 0x1314aa29] {561} @ 0x12000e028: bne r2,0x12000e000
       395 @ 0x12000e008: beq r1,0x12000e020
       396 @ 0x12000e020: lda r16,16(r16)
       397 @ 0x12000e024: ldq r2,0(r16)
       398 @ 0x12000e028: bne r2,0x12000e000
++        411 [xor: 0x1314aa06] {562} @ 0x12000e000: lda r2,-3(r2)
++        412 [xor: 0x1314aa0e] {563} @ 0x12000e004: cmpule r2,34,r1
++        413 [xor: 0x1314aa2a] {564} @ 0x12000e008: beq r1,0x12000e020
       399 @ 0x12000e000: lda r2,-3(r2)
       400 @ 0x12000e004: cmpule r2,34,r1
++        414 [xor: 0x1314aa16] {565} @ 0x12000e020: lda r16,16(r16)
++        415 [xor: 0x0749ec4d] {566} @ 0x12000e024: ldq r2,0(r16)
++        416 [xor: 0x0749ec69] {568} @ 0x12000e028: bne r2,0x12000e000
       401 @ 0x12000e008: beq r1,0x12000e020
       402 @ 0x12000e020: lda r16,16(r16)
       403 @ 0x12000e024: ldq r2,0(r16)
++        417 [xor: 0x0749ec42] {569} @ 0x12000e000: lda r2,-3(r2)
++        418 [xor: 0x0749ec4a] {570} @ 0x12000e004: cmpule r2,34,r1
++        419 [xor: 0x0749ec6e] {571} @ 0x12000e008: beq r1,0x12000e020
       404 @ 0x12000e028: bne r2,0x12000e000
       405 @ 0x12000e000: lda r2,-3(r2)
++        420 [xor: 0x0749ec72] {572} @ 0x12000e020: lda r16,16(r16)
++        421 [xor: 0x451bb92d] {573} @ 0x12000e024: ldq r2,0(r16)
       406 @ 0x12000e004: cmpule r2,34,r1
++        422 [xor: 0x451bb909] {575} @ 0x12000e028: bne r2,0x12000e000
       407 @ 0x12000e008: beq r1,0x12000e020
       408 @ 0x12000e020: lda r16,16(r16)
       409 @ 0x12000e024: ldq r2,0(r16)
       410 @ 0x12000e028: bne r2,0x12000e000
++        423 [xor: 0x451bb91a] {576} @ 0x12000e000: lda r2,-3(r2)
++        424 [xor: 0x451bb912] {577} @ 0x12000e004: cmpule r2,34,r1
++        425 [xor: 0x451bb936] {578} @ 0x12000e008: beq r1,0x12000e020
++        426 [xor: 0x451bb90a] {579} @ 0x12000e020: lda r16,16(r16)
       411 @ 0x12000e000: lda r2,-3(r2)
       412 @ 0x12000e004: cmpule r2,34,r1
++        427 [xor: 0x68168619] {580} @ 0x12000e024: ldq r2,0(r16)
++        428 [xor: 0x6816863d] {582} @ 0x12000e028: bne r2,0x12000e000
       413 @ 0x12000e008: beq r1,0x12000e020
       414 @ 0x12000e020: lda r16,16(r16)
       415 @ 0x12000e024: ldq r2,0(r16)
       416 @ 0x12000e028: bne r2,0x12000e000
++        429 [xor: 0x6816866e] {583} @ 0x12000e000: lda r2,-3(r2)
++        430 [xor: 0x68168666] {584} @ 0x12000e004: cmpule r2,34,r1
++        431 [xor: 0x68168642] {585} @ 0x12000e008: beq r1,0x12000e020
       417 @ 0x12000e000: lda r2,-3(r2)
       418 @ 0x12000e004: cmpule r2,34,r1
++        432 [xor: 0x6816861e] {586} @ 0x12000e020: lda r16,16(r16)
++        433 [xor: 0x0f0da65f] {587} @ 0x12000e024: ldq r2,0(r16)
++        434 [xor: 0x0f0da67b] {589} @ 0x12000e028: bne r2,0x12000e000
       419 @ 0x12000e008: beq r1,0x12000e020
       420 @ 0x12000e020: lda r16,16(r16)
       421 @ 0x12000e024: ldq r2,0(r16)
       422 @ 0x12000e028: bne r2,0x12000e000
++        435 [xor: 0x0f0da654] {590} @ 0x12000e000: lda r2,-3(r2)
++        436 [xor: 0x0f0da65c] {591} @ 0x12000e004: cmpule r2,34,r1
++        437 [xor: 0x0f0da678] {592} @ 0x12000e008: beq r1,0x12000e020
       423 @ 0x12000e000: lda r2,-3(r2)
       424 @ 0x12000e004: cmpule r2,34,r1
++        438 [xor: 0x0f0da644] {593} @ 0x12000e020: lda r16,16(r16)
++        439 [xor: 0x0102b217] {594} @ 0x12000e024: ldq r2,0(r16)
++        440 [xor: 0x0102b233] {596} @ 0x12000e028: bne r2,0x12000e000
       425 @ 0x12000e008: beq r1,0x12000e020
       426 @ 0x12000e020: lda r16,16(r16)
       427 @ 0x12000e024: ldq r2,0(r16)
       428 @ 0x12000e028: bne r2,0x12000e000
++        441 [xor: 0x0102b21c] {597} @ 0x12000e000: lda r2,-3(r2)
++        442 [xor: 0x0102b214] {598} @ 0x12000e004: cmpule r2,34,r1
++        443 [xor: 0x0102b230] {599} @ 0x12000e008: beq r1,0x12000e020
       429 @ 0x12000e000: lda r2,-3(r2)
       430 @ 0x12000e004: cmpule r2,34,r1
++        444 [xor: 0x0102b22c] {600} @ 0x12000e020: lda r16,16(r16)
++        445 [xor: 0x1c4da42f] {601} @ 0x12000e024: ldq r2,0(r16)
++        446 [xor: 0x1c4da40b] {603} @ 0x12000e028: bne r2,0x12000e000
       431 @ 0x12000e008: beq r1,0x12000e020
       432 @ 0x12000e020: lda r16,16(r16)
       433 @ 0x12000e024: ldq r2,0(r16)
++        447 [xor: 0x1c4da424] {604} @ 0x12000e000: lda r2,-3(r2)
++        448 [xor: 0x1c4da42c] {605} @ 0x12000e004: cmpule r2,34,r1
++        449 [xor: 0x1c4da408] {606} @ 0x12000e008: beq r1,0x12000e020
       434 @ 0x12000e028: bne r2,0x12000e000
       435 @ 0x12000e000: lda r2,-3(r2)
++        450 [xor: 0x1c4da434] {607} @ 0x12000e020: lda r16,16(r16)
++        451 [xor: 0x1f589946] {608} @ 0x12000e024: ldq r2,0(r16)
       436 @ 0x12000e004: cmpule r2,34,r1
++        452 [xor: 0x1f589962] {610} @ 0x12000e028: bne r2,0x12000e000
       437 @ 0x12000e008: beq r1,0x12000e020
       438 @ 0x12000e020: lda r16,16(r16)
       439 @ 0x12000e024: ldq r2,0(r16)
       440 @ 0x12000e028: bne r2,0x12000e000
++        453 [xor: 0x1f58994d] {611} @ 0x12000e000: lda r2,-3(r2)
++        454 [xor: 0x1f589945] {612} @ 0x12000e004: cmpule r2,34,r1
++        455 [xor: 0x1f589961] {613} @ 0x12000e008: beq r1,0x12000e020
++        456 [xor: 0x1f589ebd] {614} @ 0x12000e020: lda r16,16(r16)
       441 @ 0x12000e000: lda r2,-3(r2)
       442 @ 0x12000e004: cmpule r2,34,r1
++        457 [xor: 0x0509e6c7] {615} @ 0x12000e024: ldq r2,0(r16)
++        458 [xor: 0x0509e6e3] {617} @ 0x12000e028: bne r2,0x12000e000
       443 @ 0x12000e008: beq r1,0x12000e020
       444 @ 0x12000e020: lda r16,16(r16)
       445 @ 0x12000e024: ldq r2,0(r16)
       446 @ 0x12000e028: bne r2,0x12000e000
++        459 [xor: 0x0509e6cc] {618} @ 0x12000e000: lda r2,-3(r2)
++        460 [xor: 0x0509e6c4] {619} @ 0x12000e004: cmpule r2,34,r1
++        461 [xor: 0x0509e6e0] {620} @ 0x12000e008: beq r1,0x12000e020
       447 @ 0x12000e000: lda r2,-3(r2)
       448 @ 0x12000e004: cmpule r2,34,r1
++        462 [xor: 0x0509e6dc] {621} @ 0x12000e020: lda r16,16(r16)
++        463 [xor: 0x2527d29f] {622} @ 0x12000e024: ldq r2,0(r16)
++        464 [xor: 0x2527d2bb] {624} @ 0x12000e028: bne r2,0x12000e000
       449 @ 0x12000e008: beq r1,0x12000e020
       450 @ 0x12000e020: lda r16,16(r16)
       451 @ 0x12000e024: ldq r2,0(r16)
       452 @ 0x12000e028: bne r2,0x12000e000
++        465 [xor: 0x2527d294] {625} @ 0x12000e000: lda r2,-3(r2)
++        466 [xor: 0x2527d29c] {626} @ 0x12000e004: cmpule r2,34,r1
++        467 [xor: 0x2527d2b8] {627} @ 0x12000e008: beq r1,0x12000e020
       453 @ 0x12000e000: lda r2,-3(r2)
       454 @ 0x12000e004: cmpule r2,34,r1
++        468 [xor: 0x2527d2a4] {628} @ 0x12000e020: lda r16,16(r16)
++        469 [xor: 0x202fc3b6] {629} @ 0x12000e024: ldq r2,0(r16)
++        470 [xor: 0x202fc392] {631} @ 0x12000e028: bne r2,0x12000e000
       455 @ 0x12000e008: beq r1,0x12000e020
       456 @ 0x12000e020: lda r16,16(r16)
       457 @ 0x12000e024: ldq r2,0(r16)
       458 @ 0x12000e028: bne r2,0x12000e000
++        471 [xor: 0x202fc3bd] {632} @ 0x12000e000: lda r2,-3(r2)
++        472 [xor: 0x202fc3b5] {633} @ 0x12000e004: cmpule r2,34,r1
++        473 [xor: 0x202fc391] {634} @ 0x12000e008: beq r1,0x12000e020
       459 @ 0x12000e000: lda r2,-3(r2)
       460 @ 0x12000e004: cmpule r2,34,r1
++        474 [xor: 0x202fc3ad] {635} @ 0x12000e020: lda r16,16(r16)
++        475 [xor: 0x0d04a6a7] {636} @ 0x12000e024: ldq r2,0(r16)
++        476 [xor: 0x0d04a683] {638} @ 0x12000e028: bne r2,0x12000e000
       461 @ 0x12000e008: beq r1,0x12000e020
       462 @ 0x12000e020: lda r16,16(r16)
       463 @ 0x12000e024: ldq r2,0(r16)
++        477 [xor: 0x0d04a6aa] {639} @ 0x12000e000: lda r2,-3(r2)
++        478 [xor: 0x0d04a6a2] {640} @ 0x12000e004: cmpule r2,34,r1
++        479 [xor: 0x0d04a686] {641} @ 0x12000e008: beq r1,0x12000e020
       464 @ 0x12000e028: bne r2,0x12000e000
       465 @ 0x12000e000: lda r2,-3(r2)
++        480 [xor: 0x0d04a6da] {642} @ 0x12000e020: lda r16,16(r16)
++        481 [xor: 0x0b14a0df] {643} @ 0x12000e024: ldq r2,0(r16)
       466 @ 0x12000e004: cmpule r2,34,r1
++        482 [xor: 0x0b14a0fb] {645} @ 0x12000e028: bne r2,0x12000e000
       467 @ 0x12000e008: beq r1,0x12000e020
       468 @ 0x12000e020: lda r16,16(r16)
       469 @ 0x12000e024: ldq r2,0(r16)
       470 @ 0x12000e028: bne r2,0x12000e000
++        483 [xor: 0x0b14a0ca] {646} @ 0x12000e000: lda r2,-3(r2)
++        484 [xor: 0x0b14a0c2] {647} @ 0x12000e004: cmpule r2,34,r1
++        485 [xor: 0x0b14a0e6] {648} @ 0x12000e008: beq r1,0x12000e020
++        486 [xor: 0x0b14a0da] {649} @ 0x12000e020: lda r16,16(r16)
       471 @ 0x12000e000: lda r2,-3(r2)
       472 @ 0x12000e004: cmpule r2,34,r1
++        487 [xor: 0x0e0ea5c2] {650} @ 0x12000e024: ldq r2,0(r16)
++        488 [xor: 0x0e0ea5e6] {652} @ 0x12000e028: bne r2,0x12000e000
       473 @ 0x12000e008: beq r1,0x12000e020
       474 @ 0x12000e020: lda r16,16(r16)
       475 @ 0x12000e024: ldq r2,0(r16)
       476 @ 0x12000e028: bne r2,0x12000e000
++        489 [xor: 0x0e0ea5cf] {653} @ 0x12000e000: lda r2,-3(r2)
++        490 [xor: 0x0e0ea5c7] {654} @ 0x12000e004: cmpule r2,34,r1
++        491 [xor: 0x0e0ea5e3] {655} @ 0x12000e008: beq r1,0x12000e020
       477 @ 0x12000e000: lda r2,-3(r2)
       478 @ 0x12000e004: cmpule r2,34,r1
++        492 [xor: 0x0e0ea5ff] {656} @ 0x12000e020: lda r16,16(r16)
++        493 [xor: 0x4e35cbc1] {657} @ 0x12000e024: ldq r2,0(r16)
++        494 [xor: 0x4e35cbe5] {659} @ 0x12000e028: bne r2,0x12000e000
       479 @ 0x12000e008: beq r1,0x12000e020
       480 @ 0x12000e020: lda r16,16(r16)
       481 @ 0x12000e024: ldq r2,0(r16)
       482 @ 0x12000e028: bne r2,0x12000e000
++        495 [xor: 0x4e35cbd4] {660} @ 0x12000e000: lda r2,-3(r2)
++        496 [xor: 0x4e35cbdc] {661} @ 0x12000e004: cmpule r2,34,r1
++        497 [xor: 0x4e35cbf8] {662} @ 0x12000e008: beq r1,0x12000e020
       483 @ 0x12000e000: lda r2,-3(r2)
       484 @ 0x12000e004: cmpule r2,34,r1
++        498 [xor: 0x4e35cbc4] {663} @ 0x12000e020: lda r16,16(r16)
++        499 [xor: 0x1a50b7fe] {664} @ 0x12000e024: ldq r2,0(r16)
++        500 [xor: 0x1a50b7da] {666} @ 0x12000e028: bne r2,0x12000e000
       485 @ 0x12000e008: beq r1,0x12000e020
       486 @ 0x12000e020: lda r16,16(r16)
       487 @ 0x12000e024: ldq r2,0(r16)
       488 @ 0x12000e028: bne r2,0x12000e000
++        501 [xor: 0x1a50b7f5] {667} @ 0x12000e000: lda r2,-3(r2)
++        502 [xor: 0x1a50b7fd] {668} @ 0x12000e004: cmpule r2,34,r1
++        503 [xor: 0x1a50b7d9] {669} @ 0x12000e008: beq r1,0x12000e020
       489 @ 0x12000e000: lda r2,-3(r2)
       490 @ 0x12000e004: cmpule r2,34,r1
++        504 [xor: 0x1a50b705] {670} @ 0x12000e020: lda r16,16(r16)
++        505 [xor: 0x0c03b111] {671} @ 0x12000e024: ldq r2,0(r16)
++        506 [xor: 0x0c03b135] {673} @ 0x12000e028: bne r2,0x12000e000
       491 @ 0x12000e008: beq r1,0x12000e020
       492 @ 0x12000e020: lda r16,16(r16)
       493 @ 0x12000e024: ldq r2,0(r16)
++        507 [xor: 0x0c03b104] {674} @ 0x12000e000: lda r2,-3(r2)
++        508 [xor: 0x0c03b10c] {675} @ 0x12000e004: cmpule r2,34,r1
++        509 [xor: 0x0c03b128] {676} @ 0x12000e008: beq r1,0x12000e020
       494 @ 0x12000e028: bne r2,0x12000e000
       495 @ 0x12000e000: lda r2,-3(r2)
++        510 [xor: 0x0c03b114] {677} @ 0x12000e020: lda r16,16(r16)
++        511 [xor: 0x54228e02] {678} @ 0x12000e024: ldq r2,0(r16)
       496 @ 0x12000e004: cmpule r2,34,r1
++        512 [xor: 0x54228e26] {680} @ 0x12000e028: bne r2,0x12000e000
       497 @ 0x12000e008: beq r1,0x12000e020
       498 @ 0x12000e020: lda r16,16(r16)
       499 @ 0x12000e024: ldq r2,0(r16)
       500 @ 0x12000e028: bne r2,0x12000e000
++        513 [xor: 0x54228e15] {681} @ 0x12000e000: lda r2,-3(r2)
++        514 [xor: 0x54228e1d] {682} @ 0x12000e004: cmpule r2,34,r1
++        515 [xor: 0x54228e39] {683} @ 0x12000e008: beq r1,0x12000e020
++        516 [xor: 0x54228e25] {684} @ 0x12000e020: lda r16,16(r16)
       501 @ 0x12000e000: lda r2,-3(r2)
       502 @ 0x12000e004: cmpule r2,34,r1
++        517 [xor: 0x185e9704] {685} @ 0x12000e024: ldq r2,0(r16)
++        518 [xor: 0x185e9720] {687} @ 0x12000e028: bne r2,0x12000e000
       503 @ 0x12000e008: beq r1,0x12000e020
       504 @ 0x12000e020: lda r16,16(r16)
       505 @ 0x12000e024: ldq r2,0(r16)
       506 @ 0x12000e028: bne r2,0x12000e000
++        519 [xor: 0x185e970b] {688} @ 0x12000e000: lda r2,-3(r2)
++        520 [xor: 0x185e9703] {689} @ 0x12000e004: cmpule r2,34,r1
++        521 [xor: 0x185e9727] {690} @ 0x12000e008: beq r1,0x12000e020
       507 @ 0x12000e000: lda r2,-3(r2)
       508 @ 0x12000e004: cmpule r2,34,r1
++        522 [xor: 0x185e971b] {691} @ 0x12000e020: lda r16,16(r16)
++        523 [xor: 0x7302ac3d] {692} @ 0x12000e024: ldq r2,0(r16)
++        524 [xor: 0x7302ac19] {694} @ 0x12000e028: bne r2,0x12000e000
       509 @ 0x12000e008: beq r1,0x12000e020
       510 @ 0x12000e020: lda r16,16(r16)
       511 @ 0x12000e024: ldq r2,0(r16)
       512 @ 0x12000e028: bne r2,0x12000e000
++        525 [xor: 0x7302ac38] {695} @ 0x12000e000: lda r2,-3(r2)
++        526 [xor: 0x7302ac30] {696} @ 0x12000e004: cmpule r2,34,r1
++        527 [xor: 0x7302ac14] {697} @ 0x12000e008: beq r1,0x12000e020
       513 @ 0x12000e000: lda r2,-3(r2)
       514 @ 0x12000e004: cmpule r2,34,r1
++        528 [xor: 0x7302ac48] {698} @ 0x12000e020: lda r16,16(r16)
++        529 [xor: 0x000ea14d] {699} @ 0x12000e024: ldq r2,0(r16)
++        530 [xor: 0x000ea145] {701} @ 0x12000e028: bne r2,0x12000e000
       515 @ 0x12000e008: beq r1,0x12000e020
       516 @ 0x12000e020: lda r16,16(r16)
       517 @ 0x12000e024: ldq r2,0(r16)
       518 @ 0x12000e028: bne r2,0x12000e000
       519 @ 0x12000e000: lda r2,-3(r2)
       520 @ 0x12000e004: cmpule r2,34,r1
       521 @ 0x12000e008: beq r1,0x12000e020
       522 @ 0x12000e020: lda r16,16(r16)
       523 @ 0x12000e024: ldq r2,0(r16)
       524 @ 0x12000e028: bne r2,0x12000e000
       525 @ 0x12000e000: lda r2,-3(r2)
       526 @ 0x12000e004: cmpule r2,34,r1
       527 @ 0x12000e008: beq r1,0x12000e020
       528 @ 0x12000e020: lda r16,16(r16)
       529 @ 0x12000e024: ldq r2,0(r16)
       530 @ 0x12000e028: bne r2,0x12000e000
++        531 [xor: 0x000ea15d] {715} @ 0x12000e02c: stl r28,0(r11)
++        532 [xor: 0x000ea145] {717} @ 0x12000e030: cmpeq r4,15,r1
++        533 [xor: 0x000ea14d] {718} @ 0x12000e034: stl r21,0(r17)
++        534 [xor: 0x000ea145] {720} @ 0x12000e038: stq r0,0(r10)
++        535 [xor: 0x000ea13d] {722} @ 0x12000e03c: stq r25,-31048(r27)
++        536 [xor: 0x000ea145] {724} @ 0x12000e040: stq r24,0(r18)
++        537 [xor: 0x000ea14d] {726} @ 0x12000e044: stq r23,0(r19)
++        538 [xor: 0x000ea145] {728} @ 0x12000e048: stl r22,0(r20)
++        539 [xor: 0x000ea15d] {730} @ 0x12000e04c: stq r8,0(r9)
       531 @ 0x12000e02c: stl r28,0(r11)
       532 @ 0x12000e030: cmpeq r4,15,r1
       533 @ 0x12000e034: stl r21,0(r17)
++        540 [xor: 0x000ea16d] {732} @ 0x12000e050: beq r1,0x12000e07c
       534 @ 0x12000e038: stq r0,0(r10)
       535 @ 0x12000e03c: stq r25,-31048(r27)
       536 @ 0x12000e040: stq r24,0(r18)
       537 @ 0x12000e044: stq r23,0(r19)
       538 @ 0x12000e048: stl r22,0(r20)
       539 @ 0x12000e04c: stq r8,0(r9)
       540 @ 0x12000e050: beq r1,0x12000e07c
++        541 [xor: 0x000ea1bd] {737} @ 0x12000e07c: ldq r26,0(r30)
       541 @ 0x12000e07c: ldq r26,0(r30)
++        542 [xor: 0x2004ccac] {739} @ 0x12000e080: ldq r9,8(r30)
++        543 [xor: 0x000ea105] {741} @ 0x12000e084: ldq r10,16(r30)
++        544 [xor: 0x2004ccfc] {743} @ 0x12000e088: ldq r11,24(r30)
++        545 [xor: 0x000d2f45] {745} @ 0x12000e08c: ldq r12,32(r30)
++        546 [xor: 0x200d231c] {747} @ 0x12000e090: ldq r13,40(r30)
++        547 [xor: 0x200d22e4] {749} @ 0x12000e094: lda r30,48(r30)
++        548 [xor: 0x200dc654] {750} @ 0x12000e098: ret r31,(r26)
++        549 [xor: 0x200d22e4] {751} @ 0x120000424: ldq_u r31,0(r30)
++        550 [xor: 0x200d22ec] {753} @ 0x120000428: ldq_u r31,0(r30)
++        551 [xor: 0x00074be5] {755} @ 0x12000042c: lda r1,-31376(r29)
++        552 [xor: 0x00074bfd] {756} @ 0x120000430: ldl r2,0(r1)
       542 @ 0x12000e080: ldq r9,8(r30)
++        553 [xor: 0x00074bf5] {758} @ 0x120000434: bne r2,0x12000053c
       543 @ 0x12000e084: ldq r10,16(r30)
       544 @ 0x12000e088: ldq r11,24(r30)
       545 @ 0x12000e08c: ldq r12,32(r30)
       546 @ 0x12000e090: ldq r13,40(r30)
       547 @ 0x12000e094: lda r30,48(r30)
       548 @ 0x12000e098: ret r31,(r26)
       549 @ 0x120000424: ldq_u r31,0(r30)
       550 @ 0x120000428: ldq_u r31,0(r30)
       551 @ 0x12000042c: lda r1,-31376(r29)
       552 @ 0x120000430: ldl r2,0(r1)
       553 @ 0x120000434: bne r2,0x12000053c
++        554 [xor: 0x0007717d] {759} @ 0x120000438: lda r16,312(r30)
++        555 [xor: 0x00077105] {760} @ 0x12000043c: ldq_u r31,0(r30)
       554 @ 0x120000438: lda r16,312(r30)
       555 @ 0x12000043c: ldq_u r31,0(r30)
++        556 [xor: 0x0007cc01] {762} @ 0x120000440: bsr r26,0x12000b958
       556 @ 0x120000440: bsr r26,0x12000b958
++        557 [xor: 0x0007704e] {763} @ 0x12000b958: lda r0,339(r31)
       557 @ 0x12000b958: lda r0,339(r31)
syscall(339): returned 0:0...
++        558 [xor: 0x200d1ca4] {764} @ 0x12000b95c: call_pal callsys 
       558 @ 0x12000b95c: call_pal callsys 
++        559 [xor: 0x200d1c9c] {765} @ 0x12000b960: bne r19,0x12000b968
++        560 [xor: 0x200da1b8] {766} @ 0x12000b964: ret r31,(r26)
++        561 [xor: 0x200d1c94] {767} @ 0x120000444: ldq_u r31,0(r30)
++        562 [xor: 0x200d1c9c] {769} @ 0x120000448: ldq_u r31,0(r30)
++        563 [xor: 0x200d3db1] {771} @ 0x12000044c: lda r5,442(r30)
++        564 [xor: 0x200d3da9] {772} @ 0x120000450: bne r0,0x120000684
++        565 [xor: 0x000a50dc] {773} @ 0x120000454: bis r31,r31,r7
++        566 [xor: 0x000a50d4] {774} @ 0x120000458: bis r31,r31,r8
++        567 [xor: 0x000a71d8] {775} @ 0x12000045c: lda r3,1(r5)
       559 @ 0x12000b960: bne r19,0x12000b968
       560 @ 0x12000b964: ret r31,(r26)
       561 @ 0x120000444: ldq_u r31,0(r30)
       562 @ 0x120000448: ldq_u r31,0(r30)
       563 @ 0x12000044c: lda r5,442(r30)
       564 @ 0x120000450: bne r0,0x120000684
       565 @ 0x120000454: bis r31,r31,r7
       566 @ 0x120000458: bis r31,r31,r8
       567 @ 0x12000045c: lda r3,1(r5)
++        568 [xor: 0x390036c7] {776} @ 0x120000460: ldq_u r1,0(r5)
++        569 [xor: 0x120018f9] {778} @ 0x120000464: extqh r1,r3,r1
++        570 [xor: 0x200018c3] {779} @ 0x120000468: sra r1,56,r1
++        571 [xor: 0x200018d9] {780} @ 0x12000046c: lda r4,-48(r1)
++        572 [xor: 0x200018c3] {781} @ 0x120000470: and r4,255,r2
++        573 [xor: 0x200018c8] {782} @ 0x120000474: cmpule r2,9,r2
++        574 [xor: 0x200018c0] {783} @ 0x120000478: beq r2,0x1200004fc
++        575 [xor: 0x20003939] {784} @ 0x12000047c: lda r1,2(r5)
       568 @ 0x120000460: ldq_u r1,0(r5)
       569 @ 0x120000464: extqh r1,r3,r1
       570 @ 0x120000468: sra r1,56,r1
       571 @ 0x12000046c: lda r4,-48(r1)
       572 @ 0x120000470: and r4,255,r2
       573 @ 0x120000474: cmpule r2,9,r2
       574 @ 0x120000478: beq r2,0x1200004fc
       575 @ 0x12000047c: lda r1,2(r5)
++        576 [xor: 0x390017f6] {785} @ 0x120000480: ldq_u r2,1(r5)
++        577 [xor: 0x190a69f3] {787} @ 0x120000484: bis r31,r3,r6
++        578 [xor: 0x190a48cc] {788} @ 0x120000488: addl r31,r4,r5
++        579 [xor: 0x2e3866e2] {789} @ 0x12000048c: extqh r2,r1,r2
++        580 [xor: 0x2e3866ae] {790} @ 0x120000490: br r31,0x1200004c0
       576 @ 0x120000480: ldq_u r2,1(r5)
       577 @ 0x120000484: bis r31,r3,r6
       578 @ 0x120000488: addl r31,r4,r5
       579 @ 0x12000048c: extqh r2,r1,r2
       580 @ 0x120000490: br r31,0x1200004c0
++        581 [xor: 0x2e3866d6] {791} @ 0x1200004c0: sra r2,56,r4
++        582 [xor: 0x2e3847ec] {792} @ 0x1200004c4: lda r1,-48(r4)
++        583 [xor: 0x2e38471b] {793} @ 0x1200004c8: and r1,255,r1
++        584 [xor: 0x2e3847fd] {794} @ 0x1200004cc: cmpule r1,9,r1
++        585 [xor: 0x2e3847e5] {795} @ 0x1200004d0: bne r1,0x1200004a0
++        586 [xor: 0x2e3847ed] {796} @ 0x1200004d4: sll r7,8,r1
++        587 [xor: 0x000a47e4] {797} @ 0x1200004d8: cmpeq r4,46,r2
++        588 [xor: 0x000a47dc] {798} @ 0x1200004dc: addl r31,r1,r1
       581 @ 0x1200004c0: sra r2,56,r4
       582 @ 0x1200004c4: lda r1,-48(r4)
       583 @ 0x1200004c8: and r1,255,r1
       584 @ 0x1200004cc: cmpule r1,9,r1
       585 @ 0x1200004d0: bne r1,0x1200004a0
       586 @ 0x1200004d4: sll r7,8,r1
       587 @ 0x1200004d8: cmpeq r4,46,r2
       588 @ 0x1200004dc: addl r31,r1,r1
++        589 [xor: 0x000a47e6] {799} @ 0x1200004e0: bis r5,r1,r7
++        590 [xor: 0x000a47ef] {800} @ 0x1200004e4: addl r8,1,r8
++        591 [xor: 0x000a47e7] {801} @ 0x1200004e8: beq r2,0x1200004fc
++        592 [xor: 0x000a47ff] {802} @ 0x1200004ec: cmpeq r8,3,r1
++        593 [xor: 0x000a47e7] {803} @ 0x1200004f0: bne r1,0x120000514
++        594 [xor: 0x000a66de] {804} @ 0x1200004f4: lda r5,1(r6)
++        595 [xor: 0x000a6676] {805} @ 0x1200004f8: br r31,0x12000045c
       589 @ 0x1200004e0: bis r5,r1,r7
       590 @ 0x1200004e4: addl r8,1,r8
       591 @ 0x1200004e8: beq r2,0x1200004fc
       592 @ 0x1200004ec: cmpeq r8,3,r1
       593 @ 0x1200004f0: bne r1,0x120000514
       594 @ 0x1200004f4: lda r5,1(r6)
       595 @ 0x1200004f8: br r31,0x12000045c
++        596 [xor: 0x000a66e8] {806} @ 0x12000045c: lda r3,1(r5)
++        597 [xor: 0x190a48e6] {807} @ 0x120000460: ldq_u r1,0(r5)
++        598 [xor: 0x362454d8] {809} @ 0x120000464: extqh r1,r3,r1
++        599 [xor: 0x000a66e6] {810} @ 0x120000468: sra r1,56,r1
++        600 [xor: 0x000a66d6] {811} @ 0x12000046c: lda r4,-48(r1)
++        601 [xor: 0x000a66c9] {812} @ 0x120000470: and r4,255,r2
++        602 [xor: 0x000a66c6] {813} @ 0x120000474: cmpule r2,9,r2
++        603 [xor: 0x000a66ce] {814} @ 0x120000478: beq r2,0x1200004fc
++        604 [xor: 0x000a4731] {815} @ 0x12000047c: lda r1,2(r5)
++        605 [xor: 0x190a69fe] {816} @ 0x120000480: ldq_u r2,1(r5)
++        606 [xor: 0x190a69f0] {818} @ 0x120000484: bis r31,r3,r6
++        607 [xor: 0x190a48cd] {819} @ 0x120000488: addl r31,r4,r5
       596 @ 0x12000045c: lda r3,1(r5)
++        608 [xor: 0x2e3c48d1] {820} @ 0x12000048c: extqh r2,r1,r2
++        609 [xor: 0x2e3c489d] {821} @ 0x120000490: br r31,0x1200004c0
       597 @ 0x120000460: ldq_u r1,0(r5)
++        610 [xor: 0x2e3c48e1] {822} @ 0x1200004c0: sra r2,56,r4
++        611 [xor: 0x2e3c69d9] {823} @ 0x1200004c4: lda r1,-48(r4)
++        612 [xor: 0x2e3c692e] {824} @ 0x1200004c8: and r1,255,r1
++        613 [xor: 0x2e3c69c8] {825} @ 0x1200004cc: cmpule r1,9,r1
       598 @ 0x120000464: extqh r1,r3,r1
++        614 [xor: 0x2e3c69d0] {826} @ 0x1200004d0: bne r1,0x1200004a0
       599 @ 0x120000468: sra r1,56,r1
++        615 [xor: 0x2e3c6bd8] {827} @ 0x1200004d4: sll r7,8,r1
       600 @ 0x12000046c: lda r4,-48(r1)
++        616 [xor: 0x000a45e3] {828} @ 0x1200004d8: cmpeq r4,46,r2
       601 @ 0x120000470: and r4,255,r2
++        617 [xor: 0x000a45db] {829} @ 0x1200004dc: addl r31,r1,r1
       602 @ 0x120000474: cmpule r2,9,r2
++        618 [xor: 0x000a47e7] {830} @ 0x1200004e0: bis r5,r1,r7
       603 @ 0x120000478: beq r2,0x1200004fc
       604 @ 0x12000047c: lda r1,2(r5)
       605 @ 0x120000480: ldq_u r2,1(r5)
       606 @ 0x120000484: bis r31,r3,r6
++        619 [xor: 0x000a47ec] {831} @ 0x1200004e4: addl r8,1,r8
++        620 [xor: 0x000a47e4] {832} @ 0x1200004e8: beq r2,0x1200004fc
++        621 [xor: 0x000a45fc] {833} @ 0x1200004ec: cmpeq r8,3,r1
++        622 [xor: 0x000a45e4] {834} @ 0x1200004f0: bne r1,0x120000514
       607 @ 0x120000488: addl r31,r4,r5
       608 @ 0x12000048c: extqh r2,r1,r2
       609 @ 0x120000490: br r31,0x1200004c0
       610 @ 0x1200004c0: sra r2,56,r4
++        623 [xor: 0x000a64db] {835} @ 0x1200004f4: lda r5,1(r6)
++        624 [xor: 0x000a6473] {836} @ 0x1200004f8: br r31,0x12000045c
       611 @ 0x1200004c4: lda r1,-48(r4)
       612 @ 0x1200004c8: and r1,255,r1
       613 @ 0x1200004cc: cmpule r1,9,r1
       614 @ 0x1200004d0: bne r1,0x1200004a0
++        625 [xor: 0x000a64e9] {837} @ 0x12000045c: lda r3,1(r5)
++        626 [xor: 0x190a4ae7] {838} @ 0x120000460: ldq_u r1,0(r5)
++        627 [xor: 0x002452f7] {840} @ 0x120000464: extqh r1,r3,r1
++        628 [xor: 0x000a64e3] {841} @ 0x120000468: sra r1,56,r1
       615 @ 0x1200004d4: sll r7,8,r1
       616 @ 0x1200004d8: cmpeq r4,46,r2
       617 @ 0x1200004dc: addl r31,r1,r1
       618 @ 0x1200004e0: bis r5,r1,r7
++        629 [xor: 0x000a64d7] {842} @ 0x12000046c: lda r4,-48(r1)
++        630 [xor: 0x000a64cc] {843} @ 0x120000470: and r4,255,r2
++        631 [xor: 0x000a64c7] {844} @ 0x120000474: cmpule r2,9,r2
++        632 [xor: 0x000a64cf] {845} @ 0x120000478: beq r2,0x1200004fc
       619 @ 0x1200004e4: addl r8,1,r8
       620 @ 0x1200004e8: beq r2,0x1200004fc
       621 @ 0x1200004ec: cmpeq r8,3,r1
++        633 [xor: 0x000a452a] {846} @ 0x12000047c: lda r1,2(r5)
++        634 [xor: 0x190a6be5] {847} @ 0x120000480: ldq_u r2,1(r5)
++        635 [xor: 0x190a6bef] {849} @ 0x120000484: bis r31,r3,r6
++        636 [xor: 0x190a4ad4] {850} @ 0x120000488: addl r31,r4,r5
       622 @ 0x1200004f0: bne r1,0x120000514
       623 @ 0x1200004f4: lda r5,1(r6)
       624 @ 0x1200004f8: br r31,0x12000045c
       625 @ 0x12000045c: lda r3,1(r5)
++        637 [xor: 0x190a4acc] {851} @ 0x12000048c: extqh r2,r1,r2
++        638 [xor: 0x190a4a80] {852} @ 0x120000490: br r31,0x1200004c0
       626 @ 0x120000460: ldq_u r1,0(r5)
++        639 [xor: 0x190a4ae1] {853} @ 0x1200004c0: sra r2,56,r4
++        640 [xor: 0x190a6bc1] {854} @ 0x1200004c4: lda r1,-48(r4)
++        641 [xor: 0x190a6bc9] {855} @ 0x1200004c8: and r1,255,r1
++        642 [xor: 0x190a6bd7] {856} @ 0x1200004cc: cmpule r1,9,r1
       627 @ 0x120000464: extqh r1,r3,r1
++        643 [xor: 0x190a6bbb] {857} @ 0x1200004d0: bne r1,0x1200004a0
       628 @ 0x120000468: sra r1,56,r1
       629 @ 0x12000046c: lda r4,-48(r1)
       630 @ 0x120000470: and r4,255,r2
       631 @ 0x120000474: cmpule r2,9,r2
       632 @ 0x120000478: beq r2,0x1200004fc
       633 @ 0x12000047c: lda r1,2(r5)
       634 @ 0x120000480: ldq_u r2,1(r5)
       635 @ 0x120000484: bis r31,r3,r6
       636 @ 0x120000488: addl r31,r4,r5
       637 @ 0x12000048c: extqh r2,r1,r2
       638 @ 0x120000490: br r31,0x1200004c0
       639 @ 0x1200004c0: sra r2,56,r4
       640 @ 0x1200004c4: lda r1,-48(r4)
       641 @ 0x1200004c8: and r1,255,r1
       642 @ 0x1200004cc: cmpule r1,9,r1
       643 @ 0x1200004d0: bne r1,0x1200004a0
++        644 [xor: 0x190a6bd0] {866} @ 0x1200004a0: lda r6,1(r6)
++        645 [xor: 0x190a6bd3] {867} @ 0x1200004a4: s4addq r5,r5,r1
++        646 [xor: 0x190a6bc5] {868} @ 0x1200004a8: addq r1,r1,r1
++        647 [xor: 0x570947f4] {869} @ 0x1200004ac: ldq_u r2,0(r6)
++        648 [xor: 0x570947f2] {871} @ 0x1200004b0: lda r3,1(r6)
++        649 [xor: 0x570947a5] {872} @ 0x1200004b4: addl r1,r4,r1
++        650 [xor: 0x2e0a45b2] {873} @ 0x1200004b8: extqh r2,r3,r2
++        651 [xor: 0x2e0a45d3] {874} @ 0x1200004bc: subl r1,48,r5
++        652 [xor: 0x2e0a45b2] {875} @ 0x1200004c0: sra r2,56,r4
++        653 [xor: 0x2e0a45f0] {876} @ 0x1200004c4: lda r1,-48(r4)
++        654 [xor: 0x2e0a4507] {877} @ 0x1200004c8: and r1,255,r1
++        655 [xor: 0x2e0a45e1] {878} @ 0x1200004cc: cmpule r1,9,r1
       644 @ 0x1200004a0: lda r6,1(r6)
       645 @ 0x1200004a4: s4addq r5,r5,r1
++        656 [xor: 0x2e0a45f9] {879} @ 0x1200004d0: bne r1,0x1200004a0
++        657 [xor: 0x2e0843f1] {880} @ 0x1200004d4: sll r7,8,r1
++        658 [xor: 0x000843f8] {881} @ 0x1200004d8: cmpeq r4,46,r2
[...]
++       6193 [xor: 0x20015fa8] {8574} @ 0x12000018c: addq r31,r31,r31
++       6194 [xor: 0x20015fb0] {8575} @ 0x120000190: addq r31,r31,r31
++       6195 [xor: 0x20015fb8] {8576} @ 0x120000194: addq r31,r31,r31
++       6196 [xor: 0x20015fb0] {8577} @ 0x120000198: addq r31,r31,r31
++       6197 [xor: 0x20015f88] {8578} @ 0x12000019c: addq r31,r31,r31
++       6198 [xor: 0x20015fb0] {8579} @ 0x1200001a0: addq r31,r31,r31
++       6199 [xor: 0x20015fb8] {8580} @ 0x1200001a4: addq r31,r31,r31
++       6200 [xor: 0x20015fb0] {8581} @ 0x1200001a8: addq r31,r31,r31
++       6201 [xor: 0x20015fa8] {8582} @ 0x1200001ac: addq r31,r31,r31
      6190 @ 0x120000180: addq r31,r31,r31
      6191 @ 0x120000184: addq r31,r31,r31
      6192 @ 0x120000188: addq r31,r31,r31
      6193 @ 0x12000018c: addq r31,r31,r31
++       6202 [xor: 0x20015fb0] {8583} @ 0x1200001b0: addq r31,r31,r31
++       6203 [xor: 0x20015fb8] {8584} @ 0x1200001b4: addq r31,r31,r31
++       6204 [xor: 0x20015fb0] {8585} @ 0x1200001b8: addq r31,r31,r31
++       6205 [xor: 0x20015fc8] {8586} @ 0x1200001bc: addq r31,r31,r31
      6194 @ 0x120000190: addq r31,r31,r31
      6195 @ 0x120000194: addq r31,r31,r31
      6196 @ 0x120000198: addq r31,r31,r31
      6197 @ 0x12000019c: addq r31,r31,r31
++       6206 [xor: 0x20015fb0] {8587} @ 0x1200001c0: addq r31,r31,r31
++       6207 [xor: 0x20015fb8] {8588} @ 0x1200001c4: addq r31,r31,r31
++       6208 [xor: 0x20015fb0] {8589} @ 0x1200001c8: addq r31,r31,r31
++       6209 [xor: 0x20015fa8] {8590} @ 0x1200001cc: addq r31,r31,r31
      6198 @ 0x1200001a0: addq r31,r31,r31
      6199 @ 0x1200001a4: addq r31,r31,r31
      6200 @ 0x1200001a8: addq r31,r31,r31
      6201 @ 0x1200001ac: addq r31,r31,r31
++       6210 [xor: 0x20015fb0] {8591} @ 0x1200001d0: addq r31,r31,r31
++       6211 [xor: 0x20015fb8] {8592} @ 0x1200001d4: addq r31,r31,r31
++       6212 [xor: 0x20015fb0] {8593} @ 0x1200001d8: addq r31,r31,r31
++       6213 [xor: 0x20015f88] {8594} @ 0x1200001dc: addq r31,r31,r31
      6202 @ 0x1200001b0: addq r31,r31,r31
      6203 @ 0x1200001b4: addq r31,r31,r31
      6204 @ 0x1200001b8: addq r31,r31,r31
      6205 @ 0x1200001bc: addq r31,r31,r31
      6206 @ 0x1200001c0: addq r31,r31,r31
      6207 @ 0x1200001c4: addq r31,r31,r31
      6208 @ 0x1200001c8: addq r31,r31,r31
      6209 @ 0x1200001cc: addq r31,r31,r31
      6210 @ 0x1200001d0: addq r31,r31,r31
      6211 @ 0x1200001d4: addq r31,r31,r31
      6212 @ 0x1200001d8: addq r31,r31,r31
      6213 @ 0x1200001dc: addq r31,r31,r31
++       6214 [xor: 0x200bbdf4] {8595} @ 0x1200001e0: br r29,0x1200001e4
      6214 @ 0x1200001e0: br r29,0x1200001e4
++       6215 [xor: 0x2000bdfc] {8596} @ 0x1200001e4: ldah r29,11(r29)
++       6216 [xor: 0x20015fb0] {8597} @ 0x1200001e8: lda r29,-7748(r29)
++       6217 [xor: 0x20015fb8] {8598} @ 0x1200001ec: subq r30,16,r30
++       6218 [xor: 0x20015fa0] {8599} @ 0x1200001f0: bis r31,0,r15
++       6219 [xor: 0x00015ce8] {8600} @ 0x1200001f4: ldq r16,-32128(r29)
++       6220 [xor: 0x2001450f] {8602} @ 0x1200001f8: ldl r17,16(r30)
++       6221 [xor: 0x20017a37] {8604} @ 0x1200001fc: lda r18,24(r30)
      6215 @ 0x1200001e4: ldah r29,11(r29)
      6216 @ 0x1200001e8: lda r29,-7748(r29)
      6217 @ 0x1200001ec: subq r30,16,r30
      6218 @ 0x1200001f0: bis r31,0,r15
      6219 @ 0x1200001f4: ldq r16,-32128(r29)
      6220 @ 0x1200001f8: ldl r17,16(r30)
      6221 @ 0x1200001fc: lda r18,24(r30)
++       6222 [xor: 0x2006ee1f] {8605} @ 0x120000200: ldq r19,-32144(r29)
++       6223 [xor: 0x0006e3ac] {8607} @ 0x120000204: ldq r20,-32464(r29)
++       6224 [xor: 0x0006e3a5] {8609} @ 0x120000208: bis r31,r0,r21
++       6225 [xor: 0x0006e3bd] {8610} @ 0x12000020c: stq r30,0(r30)
++       6226 [xor: 0x0006e3a5] {8612} @ 0x120000210: ldq_u r31,0(r30)
++       6227 [xor: 0x0006ed61] {8614} @ 0x120000214: bsr r26,0x120000398
++       6228 [xor: 0x0006e9c9] {8615} @ 0x120000398: lda r30,-736(r30)
++       6229 [xor: 0x0006e9f1] {8616} @ 0x12000039c: bis r31,r31,r2
++       6230 [xor: 0x0006e9c9] {8617} @ 0x1200003a0: lda r1,0(r31)
++       6231 [xor: 0x0006e9c1] {8618} @ 0x1200003a4: stq r12,32(r30)
++       6232 [xor: 0x0006f62e] {8620} @ 0x1200003a8: bis r31,r21,r12
++       6233 [xor: 0x0006f636] {8621} @ 0x1200003ac: stq r13,40(r30)
++       6234 [xor: 0x2006e598] {8623} @ 0x1200003b0: bis r31,r20,r13
++       6235 [xor: 0x2006e590] {8624} @ 0x1200003b4: stq r14,48(r30)
      6222 @ 0x120000200: ldq r19,-32144(r29)
      6223 @ 0x120000204: ldq r20,-32464(r29)
      6224 @ 0x120000208: bis r31,r0,r21
      6225 @ 0x12000020c: stq r30,0(r30)
++       6236 [xor: 0x0006e948] {8626} @ 0x1200003b8: bis r31,r19,r14
++       6237 [xor: 0x0006e930] {8627} @ 0x1200003bc: stq r26,0(r30)
++       6238 [xor: 0x0006e948] {8629} @ 0x1200003c0: stq r9,8(r30)
++       6239 [xor: 0x0006e940] {8631} @ 0x1200003c4: stq r10,16(r30)
++       6240 [xor: 0x0006e948] {8633} @ 0x1200003c8: stq r11,24(r30)
      6226 @ 0x120000210: ldq_u r31,0(r30)
      6227 @ 0x120000214: bsr r26,0x120000398
      6228 @ 0x120000398: lda r30,-736(r30)
      6229 @ 0x12000039c: bis r31,r31,r2
++       6241 [xor: 0x0006e950] {8635} @ 0x1200003cc: stq r16,704(r30)
      6230 @ 0x1200003a0: lda r1,0(r31)
      6231 @ 0x1200003a4: stq r12,32(r30)
      6232 @ 0x1200003a8: bis r31,r21,r12
      6233 @ 0x1200003ac: stq r13,40(r30)
++       6242 [xor: 0x0006e948] {8637} @ 0x1200003d0: stq r17,712(r30)
++       6243 [xor: 0x0006e940] {8639} @ 0x1200003d4: stq r18,720(r30)
      6234 @ 0x1200003b0: bis r31,r20,r13
      6235 @ 0x1200003b4: stq r14,48(r30)
      6236 @ 0x1200003b8: bis r31,r19,r14
      6237 @ 0x1200003bc: stq r26,0(r30)
++       6244 [xor: 0x0006e948] {8641} @ 0x1200003d8: bne r1,0x120000740
++       6245 [xor: 0x0006ca57] {8642} @ 0x1200003dc: ldq r1,720(r30)
++       6246 [xor: 0x000c8c56] {8644} @ 0x1200003e0: ldq r27,712(r30)
      6238 @ 0x1200003c0: stq r9,8(r30)
      6239 @ 0x1200003c4: stq r10,16(r30)
++       6247 [xor: 0x000caf65] {8646} @ 0x1200003e4: ldq r4,736(r30)
++       6248 [xor: 0x2006e15b] {8648} @ 0x1200003e8: lda r3,8(r1)
++       6249 [xor: 0x000cab75] {8649} @ 0x1200003ec: lda r1,-31376(r29)
++       6250 [xor: 0x000c85d3] {8650} @ 0x1200003f0: s8addq r27,r3,r3
      6240 @ 0x1200003c8: stq r11,24(r30)
      6241 @ 0x1200003cc: stq r16,704(r30)
++       6251 [xor: 0x200c8b3b] {8651} @ 0x1200003f4: bis r31,r3,r16
++       6252 [xor: 0x200c8b33] {8652} @ 0x1200003f8: stl r2,0(r1)
++       6253 [xor: 0x0006e6e2] {8654} @ 0x1200003fc: lda r2,-31096(r29)
++       6254 [xor: 0x0006c852] {8655} @ 0x120000400: ldq r1,-32696(r29)
      6242 @ 0x1200003d0: stq r17,712(r30)
      6243 @ 0x1200003d4: stq r18,720(r30)
      6244 @ 0x1200003d8: bne r1,0x120000740
++       6255 [xor: 0x0006c85a] {8657} @ 0x120000404: stq r3,0(r2)
++       6256 [xor: 0x0006c852] {8659} @ 0x120000408: stq r4,0(r1)
++       6257 [xor: 0x0006c84a] {8661} @ 0x12000040c: ldq_u r31,0(r30)
      6245 @ 0x1200003dc: ldq r1,720(r30)
      6246 @ 0x1200003e0: ldq r27,712(r30)
      6247 @ 0x1200003e4: ldq r4,736(r30)
++       6258 [xor: 0x200c880b] {8663} @ 0x120000410: ldq r1,0(r16)
++       6259 [xor: 0x200c880b] {8665} @ 0x120000414: lda r16,8(r16)
++       6260 [xor: 0x200c8803] {8666} @ 0x120000418: bne r1,0x120000410
      6248 @ 0x1200003e8: lda r3,8(r1)
      6249 @ 0x1200003ec: lda r1,-31376(r29)
      6250 @ 0x1200003f0: s8addq r27,r3,r3
      6251 @ 0x1200003f4: bis r31,r3,r16
      6252 @ 0x1200003f8: stl r2,0(r1)
      6253 @ 0x1200003fc: lda r2,-31096(r29)
      6254 @ 0x120000400: ldq r1,-32696(r29)
      6255 @ 0x120000404: stq r3,0(r2)
      6256 @ 0x120000408: stq r4,0(r1)
      6257 @ 0x12000040c: ldq_u r31,0(r30)
      6258 @ 0x120000410: ldq r1,0(r16)
      6259 @ 0x120000414: lda r16,8(r16)
      6260 @ 0x120000418: bne r1,0x120000410
++       6261 [xor: 0x200c883b] {8679} @ 0x12000041c: ldq_u r31,0(r30)
++       6262 [xor: 0x200c5563] {8681} @ 0x120000420: bsr r26,0x12000df78
++       6263 [xor: 0x200c8e6f] {8682} @ 0x12000df78: lda r30,-48(r30)
++       6264 [xor: 0x0006e4be] {8683} @ 0x12000df7c: ldq r2,0(r16)
++       6265 [xor: 0x0006e446] {8685} @ 0x12000df80: stq r26,0(r30)
++       6266 [xor: 0x0006e44e] {8687} @ 0x12000df84: stq r9,8(r30)
++       6267 [xor: 0x0006e446] {8689} @ 0x12000df88: stq r10,16(r30)
++       6268 [xor: 0x0006e45e] {8691} @ 0x12000df8c: stq r11,24(r30)
++       6269 [xor: 0x0006e446] {8693} @ 0x12000df90: stq r12,32(r30)
++       6270 [xor: 0x0006e44e] {8695} @ 0x12000df94: stq r13,40(r30)
      6261 @ 0x12000041c: ldq_u r31,0(r30)
      6262 @ 0x120000420: bsr r26,0x12000df78
      6263 @ 0x12000df78: lda r30,-48(r30)
++       6271 [xor: 0x0006dba6] {8697} @ 0x12000df98: beq r2,0x12000e07c
      6264 @ 0x12000df7c: ldq r2,0(r16)
      6265 @ 0x12000df80: stq r26,0(r30)
      6266 @ 0x12000df84: stq r9,8(r30)
      6267 @ 0x12000df88: stq r10,16(r30)
      6268 @ 0x12000df8c: stq r11,24(r30)
      6269 @ 0x12000df90: stq r12,32(r30)
      6270 @ 0x12000df94: stq r13,40(r30)
      6271 @ 0x12000df98: beq r2,0x12000e07c
++       6272 [xor: 0x0006e4be] {8706} @ 0x12000e07c: ldq r26,0(r30)
++       6273 [xor: 0x0006e446] {8708} @ 0x12000e080: ldq r9,8(r30)
++       6274 [xor: 0x0006e44e] {8710} @ 0x12000e084: ldq r10,16(r30)
++       6275 [xor: 0x0006e446] {8712} @ 0x12000e088: ldq r11,24(r30)
++       6276 [xor: 0x0006e45e] {8714} @ 0x12000e08c: ldq r12,32(r30)
++       6277 [xor: 0x0006e446] {8716} @ 0x12000e090: ldq r13,40(r30)
++       6278 [xor: 0x0006e41e] {8718} @ 0x12000e094: lda r30,48(r30)
++       6279 [xor: 0x000600ae] {8719} @ 0x12000e098: ret r31,(r26)
++       6280 [xor: 0x0006e41e] {8720} @ 0x120000424: ldq_u r31,0(r30)
++       6281 [xor: 0x0006e416] {8722} @ 0x120000428: ldq_u r31,0(r30)
      6272 @ 0x12000e07c: ldq r26,0(r30)
      6273 @ 0x12000e080: ldq r9,8(r30)
      6274 @ 0x12000e084: ldq r10,16(r30)
      6275 @ 0x12000e088: ldq r11,24(r30)
++       6282 [xor: 0x200c8d1f] {8724} @ 0x12000042c: lda r1,-31376(r29)
++       6283 [xor: 0x200c8d07] {8725} @ 0x120000430: ldl r2,0(r1)
++       6284 [xor: 0x200c8d0f] {8727} @ 0x120000434: bne r2,0x12000053c
++       6285 [xor: 0x200ca449] {8728} @ 0x120000438: lda r16,312(r30)
      6276 @ 0x12000e08c: ldq r12,32(r30)
      6277 @ 0x12000e090: ldq r13,40(r30)
      6278 @ 0x12000e094: lda r30,48(r30)
      6279 @ 0x12000e098: ret r31,(r26)
++       6286 [xor: 0x200ca431] {8729} @ 0x12000043c: ldq_u r31,0(r30)
++       6287 [xor: 0x200c1935] {8731} @ 0x120000440: bsr r26,0x12000b958
      6280 @ 0x120000424: ldq_u r31,0(r30)
      6281 @ 0x120000428: ldq_u r31,0(r30)
++       6288 [xor: 0x200ca57a] {8732} @ 0x12000b958: lda r0,339(r31)
      6282 @ 0x12000042c: lda r1,-31376(r29)
      6283 @ 0x120000430: ldl r2,0(r1)
      6284 @ 0x120000434: bne r2,0x12000053c
      6285 @ 0x120000438: lda r16,312(r30)
      6286 @ 0x12000043c: ldq_u r31,0(r30)
      6287 @ 0x120000440: bsr r26,0x12000b958
      6288 @ 0x12000b958: lda r0,339(r31)
++       6289 [xor: 0x200ca542] {8733} @ 0x12000b95c: call_pal callsys 
++       6290 [xor: 0x200ca576] {8734} @ 0x12000b960: bne r19,0x12000b968

sim: ** simulation statistics **
sim_num_insn                   6290 # total number of instructions committed
sim_num_refs                   1873 # total number of loads and stores committed
sim_num_loads                  1231 # total number of loads committed
sim_num_stores             642.0000 # total number of stores committed
sim_num_branches               1026 # total number of branches committed
sim_elapsed_time                  1 # total simulation time in seconds
sim_inst_rate             6290.0000 # simulation speed (in insts/sec)
sim_total_insn                 6758 # total number of instructions executed
sim_total_refs                 1979 # total number of loads and stores executed
sim_total_loads                1313 # total number of loads executed
sim_total_stores           666.0000 # total number of stores executed
sim_total_branches             1080 # total number of branches executed
sim_cycle                      9713 # total simulation time in cycles
sim_IPC                      0.6476 # instructions per cycle
sim_CPI                      1.5442 # cycles per instruction
sim_exec_BW                  0.6958 # total instructions (mis-spec + committed) per cycle
sim_IPB                      6.1306 # instruction per branch
IFQ_count                      9084 # cumulative IFQ occupancy
IFQ_fcount                     1773 # cumulative IFQ full count
ifq_occupancy                0.9352 # avg IFQ occupancy (insn's)
ifq_rate                     0.6958 # avg IFQ dispatch rate (insn/cycle)
ifq_latency                  1.3442 # avg IFQ occupant latency (cycle's)
ifq_full                     0.1825 # fraction of time (cycle's) IFQ was full
RUU_count                     35176 # cumulative RUU occupancy
RUU_fcount                     1331 # cumulative RUU full count
ruu_occupancy                3.6215 # avg RUU occupancy (insn's)
ruu_rate                     0.6958 # avg RUU dispatch rate (insn/cycle)
ruu_latency                  5.2051 # avg RUU occupant latency (cycle's)
ruu_full                     0.1370 # fraction of time (cycle's) RUU was full
LSQ_count                     10293 # cumulative LSQ occupancy
LSQ_fcount                      120 # cumulative LSQ full count
lsq_occupancy                1.0597 # avg LSQ occupancy (insn's)
lsq_rate                     0.6958 # avg LSQ dispatch rate (insn/cycle)
lsq_latency                  1.5231 # avg LSQ occupant latency (cycle's)
lsq_full                     0.0124 # fraction of time (cycle's) LSQ was full
sim_slip                      52221 # total number of slip cycles
avg_sim_slip                 8.3022 # the average slip between issue and retirement
misfetch_count                  143 # misfetch count
misfetch_only_count              94 # misfetch only count
recovery_count                  259 # recovery count
bpred_bimod.lookups            1116 # total number of bpred lookups
bpred_bimod.updates            1025 # total number of updates
bpred_bimod.addr_hits           820 # total number of address-predicted hits
bpred_bimod.dir_hits            918 # total number of direction-predicted hits (includes addr-hits)
bpred_bimod.misses              107 # total number of misses
bpred_bimod.jr_hits              49 # total number of address-predicted hits for JR's
bpred_bimod.jr_seen              58 # total number of JR's seen
bpred_bimod.jr_non_ras_hits.PP            0 # total number of address-predicted hits for non-RAS JR's
bpred_bimod.jr_non_ras_seen.PP            4 # total number of non-RAS JR's seen
bpred_bimod.bpred_addr_rate    0.8000 # branch address-prediction rate (i.e., addr-hits/updates)
bpred_bimod.bpred_dir_rate    0.8956 # branch direction-prediction rate (i.e., all-hits/updates)
bpred_bimod.bpred_jr_rate    0.8448 # JR address-prediction rate (i.e., JR addr-hits/JRs seen)
bpred_bimod.bpred_jr_non_ras_rate.PP    0.0000 # non-RAS JR addr-pred rate (ie, non-RAS JR hits/JRs seen)
bpred_bimod.retstack_pushes           70 # total number of address pushed onto ret-addr stack
bpred_bimod.retstack_pops           61 # total number of address popped off of ret-addr stack
bpred_bimod.used_ras.PP           54 # total number of RAS predictions used
bpred_bimod.ras_hits.PP           49 # total number of RAS hits
bpred_bimod.ras_rate.PP    0.9074 # RAS prediction rate (i.e., RAS hits/used RAS)
il1.accesses                   7123 # total number of accesses
il1.hits                       6807 # total number of hits
il1.misses                      316 # total number of misses
il1.replacements                 82 # total number of replacements
il1.writebacks                    0 # total number of writebacks
il1.invalidations                 0 # total number of invalidations
il1.miss_rate                0.0444 # miss rate (i.e., misses/ref)
il1.repl_rate                0.0115 # replacement rate (i.e., repls/ref)
il1.wb_rate                  0.0000 # writeback rate (i.e., wrbks/ref)
il1.inv_rate                 0.0000 # invalidation rate (i.e., invs/ref)
dl1.accesses                    642 # total number of accesses
dl1.hits                        495 # total number of hits
dl1.misses                      147 # total number of misses
dl1.replacements                  0 # total number of replacements
dl1.writebacks                    0 # total number of writebacks
dl1.invalidations                 0 # total number of invalidations
dl1.miss_rate                0.2290 # miss rate (i.e., misses/ref)
dl1.repl_rate                0.0000 # replacement rate (i.e., repls/ref)
dl1.wb_rate                  0.0000 # writeback rate (i.e., wrbks/ref)
dl1.inv_rate                 0.0000 # invalidation rate (i.e., invs/ref)
ul2.accesses                    463 # total number of accesses
ul2.hits                        198 # total number of hits
ul2.misses                      265 # total number of misses
ul2.replacements                  0 # total number of replacements
ul2.writebacks                    0 # total number of writebacks
ul2.invalidations                 0 # total number of invalidations
ul2.miss_rate                0.5724 # miss rate (i.e., misses/ref)
ul2.repl_rate                0.0000 # replacement rate (i.e., repls/ref)
ul2.wb_rate                  0.0000 # writeback rate (i.e., wrbks/ref)
ul2.inv_rate                 0.0000 # invalidation rate (i.e., invs/ref)
itlb.accesses                  7123 # total number of accesses
itlb.hits                      7104 # total number of hits
itlb.misses                      19 # total number of misses
itlb.replacements                 0 # total number of replacements
itlb.writebacks                   0 # total number of writebacks
itlb.invalidations                0 # total number of invalidations
itlb.miss_rate               0.0027 # miss rate (i.e., misses/ref)
itlb.repl_rate               0.0000 # replacement rate (i.e., repls/ref)
itlb.wb_rate                 0.0000 # writeback rate (i.e., wrbks/ref)
itlb.inv_rate                0.0000 # invalidation rate (i.e., invs/ref)
dtlb.accesses                   642 # total number of accesses
dtlb.hits                       633 # total number of hits
dtlb.misses                       9 # total number of misses
dtlb.replacements                 0 # total number of replacements
dtlb.writebacks                   0 # total number of writebacks
dtlb.invalidations                0 # total number of invalidations
dtlb.miss_rate               0.0140 # miss rate (i.e., misses/ref)
dtlb.repl_rate               0.0000 # replacement rate (i.e., repls/ref)
dtlb.wb_rate                 0.0000 # writeback rate (i.e., wrbks/ref)
dtlb.inv_rate                0.0000 # invalidation rate (i.e., invs/ref)
sim_invalid_addrs              1134 # total non-speculative bogus addresses seen (debug var)
ld_text_base           0x01200001e0 # program text (code) segment base
ld_text_size                 480640 # program text (code) size in bytes
ld_data_base           0x01200a58c0 # program initialized data segment base
ld_data_size                   2776 # program init'ed `.data' and uninit'ed `.bss' size in bytes
ld_stack_base          0x0000000000 # program stack segment base (highest address in stack)
ld_stack_size            3766484992 # program initial stack size
ld_prog_entry          0x01200001e0 # program entry point (initial PC)
ld_environ_base        0x011f800000 # program environment base address address
ld_target_big_endian              0 # target executable endian-ness, non-zero if big endian
mem.page_count                   81 # total number of pages allocated
mem.page_mem                   648k # total size of memory pages allocated
mem.ptab_misses                  97 # total first level page table misses
mem.ptab_accesses           1268976 # total page table accesses
mem.ptab_miss_rate           0.0001 # first level page table miss rate

